
     RDKit          3D

 29 31  0  0  0  0  0  0  0  0999 V2000
   -5.5039    3.3542   -0.4193 C   0  0  0  0  0  0  0  0  0  0  0  0
   -6.0468    1.9778   -0.4982 C   0  0  0  0  0  0  0  0  0  0  0  0
   -7.3774    1.8098   -0.7840 C   0  0  0  0  0  0  0  0  0  0  0  0
   -7.8677    0.5329   -0.8577 C   0  0  0  0  0  0  0  0  0  0  0  0
   -7.0344   -0.5585   -0.6475 C   0  0  0  0  0  0  0  0  0  0  0  0
   -5.6870   -0.3981   -0.3576 C   0  0  0  0  0  0  0  0  0  0  0  0
   -4.8759   -1.5311   -0.1552 N   0  0  0  0  0  0  0  0  0  0  0  0
   -3.5156   -1.4517    0.2447 C   0  0  0  0  0  0  0  0  0  0  0  0
   -2.9743   -0.3295    0.4376 O   0  0  0  0  0  0  0  0  0  0  0  0
   -2.8109   -2.7444    0.4121 C   0  0  0  0  0  0  0  0  0  0  0  0
   -1.4416   -2.6133    0.8427 N   0  0  0  0  0  0  0  0  0  0  0  0
   -0.4290   -1.9388    0.1659 C   0  0  0  0  0  0  0  0  0  0  0  0
   -0.7040   -1.3838   -0.9297 O   0  0  0  0  0  0  0  0  0  0  0  0
    0.9040   -1.7895    0.5554 N   0  0  0  0  0  0  0  0  0  0  0  0
    1.8605   -0.9744   -0.3807 C   0  0  2  0  0  0  0  0  0  0  0  0
    3.2216   -1.4132    0.5085 C   0  0  0  0  0  0  0  0  0  0  0  0
    4.2610   -0.6811   -0.2794 C   0  0  0  0  0  0  0  0  0  0  0  0
    5.0698    0.2395    0.2209 C   0  0  0  0  0  0  0  0  0  0  0  0
    5.2190    0.7756    1.4768 C   0  0  0  0  0  0  0  0  0  0  0  0
    6.1337    1.7460    1.7895 C   0  0  0  0  0  0  0  0  0  0  0  0
    6.9575    2.2089    0.7604 C   0  0  0  0  0  0  0  0  0  0  0  0
    6.8273    1.6830   -0.5195 C   0  0  0  0  0  0  0  0  0  0  0  0
    5.8895    0.7066   -0.7807 C   0  0  0  0  0  0  0  0  0  0  0  0
    5.6467    0.1221   -1.8963 N   0  0  0  0  0  0  0  0  0  0  0  0
    4.5941   -0.8270   -1.7158 C   0  0  0  0  0  0  0  0  0  0  0  0
    1.6754    0.4601    0.2066 C   0  0  0  0  0  0  0  0  0  0  0  0
    0.8975    0.5672    1.1269 O   0  0  0  0  0  0  0  0  0  0  0  0
    2.3079    1.5667   -0.2301 O   0  0  0  0  0  0  0  0  0  0  0  0
   -5.1970    0.8840   -0.2839 C   0  0  0  0  0  0  0  0  0  0  0  0
  1  2  1  0
  2  3  2  0
  3  4  1  0
  4  5  2  0
  5  6  1  0
  6  7  1  0
  7  8  1  0
  8  9  2  0
  8 10  1  0
 10 11  1  0
 11 12  1  0
 12 13  2  0
 12 14  1  0
 14 15  1  0
 15 16  1  1
 16 17  1  0
 17 18  2  0
 18 19  1  0
 19 20  2  0
 20 21  1  0
 21 22  2  0
 22 23  1  0
 23 24  2  0
 24 25  1  0
 15 26  1  0
 26 27  2  0
 26 28  1  0
  6 29  2  0
 29  2  1  0
 25 17  1  0
 23 18  1  0
M  END
>  <zinc_id>  (1) 
ZINC000064683419

>  <smiles>  (1) 
Cc1cccc(NC(=O)CNC(=O)N[C@H](CC2=c3ccccc3=NC2)C(=O)O)c1

$$$$
