
     RDKit          3D

 24 25  0  0  0  0  0  0  0  0999 V2000
    5.7791    3.3539   -0.5209 C   0  0  0  0  0  0  0  0  0  0  0  0
    4.7387    2.4104   -0.3517 O   0  0  0  0  0  0  0  0  0  0  0  0
    4.9919    1.0681   -0.0439 C   0  0  0  0  0  0  0  0  0  0  0  0
    6.2784    0.5948    0.1109 C   0  0  0  0  0  0  0  0  0  0  0  0
    6.4787   -0.7555    0.4184 C   0  0  0  0  0  0  0  0  0  0  0  0
    5.3837   -1.5831    0.5598 C   0  0  0  0  0  0  0  0  0  0  0  0
    5.6209   -3.2732    0.9441 Cl  0  0  0  0  0  0  0  0  0  0  0  0
    4.1120   -1.0705    0.3968 C   0  0  0  0  0  0  0  0  0  0  0  0
    3.8847    0.2564    0.0934 C   0  0  0  0  0  0  0  0  0  0  0  0
    2.5627    0.7911   -0.0764 N   0  0  0  0  0  0  0  0  0  0  0  0
    1.4409   -0.0640    0.0700 C   0  0  0  0  0  0  0  0  0  0  0  0
    1.6635   -1.2712    0.3465 O   0  0  0  0  0  0  0  0  0  0  0  0
    0.0441    0.4615   -0.1007 C   0  0  0  0  0  0  0  0  0  0  0  0
   -0.9407   -0.6686    0.1120 C   0  0  0  0  0  0  0  0  0  0  0  0
   -2.2817   -0.1408   -0.0571 N   0  0  0  0  0  0  0  0  0  0  0  0
   -3.4419   -0.9523    0.0781 C   0  0  0  0  0  0  0  0  0  0  0  0
   -3.2525   -2.1644    0.3545 O   0  0  0  0  0  0  0  0  0  0  0  0
   -4.7876   -0.4170   -0.0928 C   0  0  0  0  0  0  0  0  0  0  0  0
   -5.8708   -1.2563    0.0511 C   0  0  0  0  0  0  0  0  0  0  0  0
   -7.1689   -0.8048   -0.0994 C   0  0  0  0  0  0  0  0  0  0  0  0
   -7.3425    0.5263   -0.4011 C   0  0  0  0  0  0  0  0  0  0  0  0
   -6.3068    1.3732   -0.5485 N   0  0  0  0  0  4  0  0  0  0  0  0
   -6.5509    2.6854   -0.8488 O   0  0  0  0  0  1  0  0  0  0  0  0
   -5.0350    0.9005   -0.3944 C   0  0  0  0  0  0  0  0  0  0  0  0
  1  2  1  0
  2  3  1  0
  3  4  2  0
  4  5  1  0
  5  6  2  0
  6  7  1  0
  6  8  1  0
  8  9  2  0
  9 10  1  0
 10 11  1  0
 11 12  2  0
 11 13  1  0
 13 14  1  0
 14 15  1  0
 15 16  1  0
 16 17  2  0
 16 18  1  0
 18 19  2  0
 19 20  1  0
 20 21  2  0
 21 22  1  0
 22 23  1  0
 22 24  2  0
  9  3  1  0
 24 18  1  0
M  CHG  2  22   1  23  -1
M  END
>  <zinc_id>  (1) 
ZINC000081998540

>  <smiles>  (1) 
COc1ccc(Cl)cc1NC(=O)CCNC(=O)c1ccc[n+]([O-])c1

$$$$
