
     RDKit          3D

 24 27  0  0  0  0  0  0  0  0999 V2000
    4.7382    3.5194   -0.6791 C   0  0  0  0  0  0  0  0  0  0  0  0
    3.5464    2.8213   -0.3987 O   0  0  0  0  0  0  0  0  0  0  0  0
    3.6626    1.4521   -0.0833 C   0  0  0  0  0  0  0  0  0  0  0  0
    4.8924    0.8284   -0.0522 C   0  0  0  0  0  0  0  0  0  0  0  0
    5.0037   -0.5099    0.2564 C   0  0  0  0  0  0  0  0  0  0  0  0
    3.8570   -1.2282    0.5373 C   0  0  0  0  0  0  0  0  0  0  0  0
    2.6136   -0.6333    0.5144 C   0  0  0  0  0  0  0  0  0  0  0  0
    2.5189    0.7149    0.2019 C   0  0  0  0  0  0  0  0  0  0  0  0
    1.6790   -1.5233    0.8159 C   0  0  0  0  0  0  0  0  0  0  0  0
    0.2190   -1.2716    0.8956 C   0  0  0  0  0  0  0  0  0  0  0  0
   -0.5428   -2.1495   -0.1004 C   0  0  0  0  0  0  0  0  0  0  0  0
   -1.9444   -1.8888   -0.0042 N   0  0  0  0  0  0  0  0  0  0  0  0
   -2.5157   -0.6289   -0.2369 C   0  0  0  0  0  0  0  0  0  0  0  0
   -1.7483    0.4127   -0.5688 N   0  0  0  0  0  0  0  0  0  0  0  0
   -2.2911    1.6372   -0.7964 C   0  0  0  0  0  0  0  0  0  0  0  0
   -1.2409    2.9796   -1.2310 Cl  0  0  0  0  0  0  0  0  0  0  0  0
   -3.6208    1.7831   -0.6812 N   0  0  0  0  0  0  0  0  0  0  0  0
   -4.4505    0.7780   -0.3509 C   0  0  0  0  0  0  0  0  0  0  0  0
   -5.7632    0.6129   -0.1643 N   0  0  0  0  0  0  0  0  0  0  0  0
   -6.0487   -0.6602    0.1680 C   0  0  0  0  0  0  0  0  0  0  0  0
   -4.8511   -1.3017    0.1845 N   0  0  0  0  0  0  0  0  0  0  0  0
   -3.8708   -0.4662   -0.1228 C   0  0  0  0  0  0  0  0  0  0  0  0
    2.3843   -2.8021    1.0535 C   0  0  0  0  0  0  0  0  0  0  0  0
    3.7732   -2.4757    0.8428 N   0  0  0  0  0  0  0  0  0  0  0  0
  1  2  1  0
  2  3  1  0
  3  4  1  0
  4  5  2  0
  5  6  1  0
  6  7  1  0
  7  8  1  0
  7  9  2  0
  9 10  1  0
 10 11  1  0
 11 12  1  0
 12 13  1  0
 13 14  2  0
 14 15  1  0
 15 16  1  0
 15 17  2  0
 17 18  1  0
 18 19  1  0
 19 20  1  0
 20 21  2  0
 21 22  1  0
  9 23  1  0
 23 24  1  0
  8  3  2  0
 22 13  1  0
 24  6  2  0
 22 18  2  0
M  END
>  <zinc_id>  (1) 
ZINC000063386584

>  <smiles>  (1) 
COc1ccc2c(c1)=C(CCNc1nc(Cl)nc3[nH]cnc13)CN=2

$$$$
