
     RDKit          3D

 26 28  0  0  0  0  0  0  0  0999 V2000
    4.3908    3.6152   -0.2053 C   0  0  0  0  0  0  0  0  0  0  0  0
    5.2564    2.6526   -0.6907 O   0  0  0  0  0  0  0  0  0  0  0  0
    5.2473    1.3130   -0.4992 C   0  0  0  0  0  0  0  0  0  0  0  0
    6.2438    0.5007   -1.0710 C   0  0  0  0  0  0  0  0  0  0  0  0
    6.2050   -0.8519   -0.8600 C   0  0  0  0  0  0  0  0  0  0  0  0
    5.2463   -1.4380   -0.0947 C   0  0  0  0  0  0  0  0  0  0  0  0
    5.2806   -2.7914    0.0949 O   0  0  0  0  0  0  0  0  0  0  0  0
    4.2787   -0.6668    0.4629 C   0  0  0  0  0  0  0  0  0  0  0  0
    3.2727   -1.1844    1.4213 C   0  0  0  0  0  0  0  0  0  0  0  0
    2.0706   -1.1829    0.9478 N   0  0  0  0  0  0  0  0  0  0  0  0
    0.6947   -1.2104    1.0713 C   0  0  0  0  0  0  0  0  0  0  0  0
    0.2409   -1.2028    2.2251 O   0  0  0  0  0  0  0  0  0  0  0  0
   -0.1268   -1.2510   -0.0680 N   0  0  0  0  0  0  0  0  0  0  0  0
   -1.5164   -1.1793   -0.1543 C   0  0  0  0  0  0  0  0  0  0  0  0
   -2.2073   -2.0122   -1.0323 C   0  0  0  0  0  0  0  0  0  0  0  0
   -3.5830   -1.7759   -1.2642 C   0  0  0  0  0  0  0  0  0  0  0  0
   -4.2255   -0.7108   -0.6025 C   0  0  0  0  0  0  0  0  0  0  0  0
   -5.4700   -0.1716   -0.7266 N   0  0  0  0  0  0  0  0  0  0  0  0
   -5.5399    0.9115    0.0480 C   0  0  0  0  0  0  0  0  0  0  0  0
   -6.6470    1.9448    0.1326 C   0  0  0  0  0  0  0  0  0  0  0  0
   -5.9730    3.2102    0.0249 F   0  0  0  0  0  0  0  0  0  0  0  0
   -7.3217    1.7993   -1.0951 F   0  0  0  0  0  0  0  0  0  0  0  0
   -4.3721    1.0479    0.6504 N   0  0  0  0  0  0  0  0  0  0  0  0
   -3.5244    0.0722    0.2660 C   0  0  0  0  0  0  0  0  0  0  0  0
   -2.1925   -0.1638    0.4810 C   0  0  0  0  0  0  0  0  0  0  0  0
    4.2719    0.7259    0.2541 C   0  0  0  0  0  0  0  0  0  0  0  0
  1  2  1  0
  2  3  1  0
  3  4  2  0
  4  5  1  0
  5  6  2  0
  6  7  1  0
  6  8  1  0
  8  9  1  0
  9 10  1  0
 10 11  1  0
 11 12  2  0
 11 13  1  0
 13 14  1  0
 14 15  2  0
 15 16  1  0
 16 17  2  0
 17 18  1  0
 18 19  1  0
 19 20  1  0
 20 21  1  0
 20 22  1  0
 19 23  2  0
 23 24  1  0
 24 25  2  0
  8 26  2  0
 26  3  1  0
 25 14  1  0
 24 17  1  0
M  END
>  <zinc_id>  (1) 
ZINC000093350932

>  <smiles>  (1) 
COc1ccc(O)c(CNC(=O)Nc2ccc3[nH]c(C(F)F)nc3c2)c1

$$$$
