
     RDKit          3D

 30 32  0  0  0  0  0  0  0  0999 V2000
    6.2916    2.9476    0.8484 O   0  0  0  0  0  0  0  0  0  0  0  0
    6.1916    1.5425    0.2889 S   0  0  0  0  0  0  0  0  0  0  0  0
    6.8779    0.6416    1.2530 O   0  0  0  0  0  0  0  0  0  0  0  0
    6.9284    1.5385   -1.2052 O   0  0  0  0  0  0  0  0  0  0  0  0
    4.5061    1.0901    0.0582 C   0  0  0  0  0  0  0  0  0  0  0  0
    3.5303    2.0335   -0.1794 C   0  0  0  0  0  0  0  0  0  0  0  0
    2.2074    1.6697   -0.3597 C   0  0  0  0  0  0  0  0  0  0  0  0
    1.7923    0.3543   -0.3127 C   0  0  0  0  0  0  0  0  0  0  0  0
    0.4382   -0.0438   -0.4950 N   0  0  0  0  0  0  0  0  0  0  0  0
   -0.4240    0.4349    0.2648 N   0  0  0  0  0  0  0  0  0  0  0  0
   -1.7949    0.1902    0.2697 C   0  0  0  0  0  0  0  0  0  0  0  0
   -2.6130    1.1403    0.5349 N   0  0  0  0  0  0  0  0  0  0  0  0
   -3.9783    0.8510    0.5288 N   0  0  0  0  0  0  0  0  0  0  0  0
   -4.8019    1.6406   -0.3989 C   0  0  0  0  0  0  0  0  0  0  0  0
   -6.1764    1.2166   -0.2776 N   0  0  0  0  0  0  0  0  0  0  0  0
   -6.8147    2.1856    0.2238 N   0  0  0  0  0  0  0  0  0  0  0  0
   -6.0096    3.2770    0.4746 N   0  0  0  0  0  0  0  0  0  0  0  0
   -4.8452    2.9934    0.1265 N   0  0  0  0  0  0  0  0  0  0  0  0
   -2.3291   -1.1268   -0.0206 C   0  0  0  0  0  0  0  0  0  0  0  0
   -3.6684   -1.3967    0.1759 C   0  0  0  0  0  0  0  0  0  0  0  0
   -4.1869   -2.6276   -0.0914 C   0  0  0  0  0  0  0  0  0  0  0  0
   -3.3367   -3.6008   -0.5651 C   0  0  0  0  0  0  0  0  0  0  0  0
   -1.9933   -3.3664   -0.7733 C   0  0  0  0  0  0  0  0  0  0  0  0
   -1.4771   -2.1313   -0.5042 C   0  0  0  0  0  0  0  0  0  0  0  0
    2.7720   -0.5899   -0.0744 C   0  0  0  0  0  0  0  0  0  0  0  0
    2.2620   -2.2740   -0.0108 S   0  0  0  0  0  0  0  0  0  0  0  0
    1.6244   -2.6728   -1.3102 O   0  0  0  0  0  0  0  0  0  0  0  0
    1.3061   -2.4834    1.1369 O   0  0  0  0  0  0  0  0  0  0  0  0
    3.6210   -3.2073    0.2873 O   0  0  0  0  0  0  0  0  0  0  0  0
    4.1000   -0.2266    0.1068 C   0  0  0  0  0  0  0  0  0  0  0  0
  1  2  2  0
  2  3  2  0
  2  4  1  0
  2  5  1  0
  5  6  2  0
  6  7  1  0
  7  8  2  0
  8  9  1  0
  9 10  2  0
 10 11  1  0
 11 12  2  0
 12 13  1  0
 13 14  1  0
 14 15  1  0
 15 16  2  0
 16 17  1  0
 17 18  2  0
 11 19  1  0
 19 20  2  0
 20 21  1  0
 21 22  2  0
 22 23  1  0
 23 24  2  0
  8 25  1  0
 25 26  1  0
 26 27  2  0
 26 28  2  0
 26 29  1  0
 25 30  2  0
 30  5  1  0
 18 14  1  0
 24 19  1  0
M  END
>  <zinc_id>  (1) 
ZINC000038890642

>  <smiles>  (1) 
O=S(=O)(O)c1ccc(/N=N/C(=N/NC2N=NN=N2)c2ccccc2)c(S(=O)(=O)O)c1

$$$$
