
     RDKit          3D

 25 27  0  0  0  0  0  0  0  0999 V2000
    0.6574   -1.2349   -0.0574 O   0  0  0  0  0  0  0  0  0  0  0  0
    1.1616   -0.8482    1.0263 C   0  0  0  0  0  0  0  0  0  0  0  0
    2.5556   -1.0777    1.2061 N   0  0  0  0  0  0  0  0  0  0  0  0
    3.3701   -1.7307    0.1859 C   0  0  0  0  0  0  0  0  0  0  0  0
    3.2139   -0.7293   -1.1339 C   0  0  2  0  0  0  0  0  0  0  0  0
    4.1198   -1.6119   -1.9986 O   0  0  0  0  0  0  0  0  0  0  0  0
    4.3600    0.2716   -0.6886 C   0  0  0  0  0  0  0  0  0  0  0  0
    5.2285    0.7254   -1.6198 C   0  0  0  0  0  0  0  0  0  0  0  0
    6.2423    1.6178   -1.2387 C   0  0  0  0  0  0  0  0  0  0  0  0
    6.3249    1.9992    0.0423 N   0  0  0  0  0  0  0  0  0  0  0  0
    5.4655    1.5513    0.9688 C   0  0  0  0  0  0  0  0  0  0  0  0
    4.4511    0.6618    0.6011 C   0  0  0  0  0  0  0  0  0  0  0  0
    0.3412   -0.2195    1.9910 N   0  0  0  0  0  0  0  0  0  0  0  0
   -1.0429   -0.0442    1.6987 C   0  0  0  0  0  0  0  0  0  0  0  0
   -1.8590    0.5668    2.6276 C   0  0  0  0  0  0  0  0  0  0  0  0
   -3.2059    0.7539    2.3788 C   0  0  0  0  0  0  0  0  0  0  0  0
   -3.7776    0.3339    1.1896 C   0  0  0  0  0  0  0  0  0  0  0  0
   -5.0196    0.3701    0.6644 N   0  0  0  0  0  0  0  0  0  0  0  0
   -5.0272   -0.1902   -0.5549 C   0  0  0  0  0  0  0  0  0  0  0  0
   -6.1985   -0.3562   -1.4846 C   0  0  0  0  0  0  0  0  0  0  0  0
   -5.7943    0.0239   -2.7719 F   0  0  0  0  0  0  0  0  0  0  0  0
   -7.2237    0.4896   -1.1017 F   0  0  0  0  0  0  0  0  0  0  0  0
   -3.7643   -0.5835   -0.7944 N   0  0  0  0  0  0  0  0  0  0  0  0
   -2.9647   -0.2778    0.2576 C   0  0  0  0  0  0  0  0  0  0  0  0
   -1.6142   -0.4612    0.5161 C   0  0  0  0  0  0  0  0  0  0  0  0
  1  2  2  0
  2  3  1  0
  3  4  1  0
  4  5  1  0
  5  6  1  6
  5  7  1  0
  7  8  2  0
  8  9  1  0
  9 10  2  0
 10 11  1  0
 11 12  2  0
  2 13  1  0
 13 14  1  0
 14 15  2  0
 15 16  1  0
 16 17  2  0
 17 18  1  0
 18 19  1  0
 19 20  1  0
 20 21  1  0
 20 22  1  0
 19 23  2  0
 23 24  1  0
 24 25  2  0
 12  7  1  0
 25 14  1  0
 24 17  1  0
M  END
>  <zinc_id>  (1) 
ZINC000093351387

>  <smiles>  (1) 
O=C(NC[C@H](O)c1ccncc1)Nc1ccc2[nH]c(C(F)F)nc2c1

$$$$
