
     RDKit          2D

 47 49  0  0  0  0  0  0  0  0999 V2000
    0.3518   -7.7159    0.0000 N   0  0  0  0  0  0  0  0  0  0  0  0
    0.4771   -6.2212    0.0000 C   0  0  0  0  0  0  0  0  0  0  0  0
    1.8342   -5.5823    0.0000 C   0  0  0  0  0  0  0  0  0  0  0  0
    1.9595   -4.0875    0.0000 C   0  0  0  0  0  0  0  0  0  0  0  0
    0.7276   -3.2316    0.0000 O   0  0  0  0  0  0  0  0  0  0  0  0
    3.3166   -3.4486    0.0000 C   0  0  0  0  0  0  0  0  0  0  0  0
    4.5485   -4.3045    0.0000 O   0  0  0  0  0  0  0  0  0  0  0  0
    3.4419   -1.9539    0.0000 N   0  0  0  0  0  0  0  0  0  0  0  0
    4.7991   -1.3150    0.0000 C   0  0  0  0  0  0  0  0  0  0  0  0
    4.9243    0.1798    0.0000 C   0  0  0  0  0  0  0  0  0  0  0  0
    3.6925    1.0356    0.0000 O   0  0  0  0  0  0  0  0  0  0  0  0
    3.8178    2.5304    0.0000 C   0  0  0  0  0  0  0  0  0  0  0  0
    2.5859    3.3863    0.0000 O   0  0  0  0  0  0  0  0  0  0  0  0
    1.2288    2.7474    0.0000 C   0  0  0  0  0  0  0  0  0  0  0  0
   -0.0031    3.6033    0.0000 C   0  0  0  0  0  0  0  0  0  0  0  0
    0.1222    5.0980    0.0000 N   0  0  0  0  0  0  0  0  0  0  0  0
   -1.3602    2.9644    0.0000 C   0  0  0  0  0  0  0  0  0  0  0  0
   -1.4855    1.4696    0.0000 C   0  0  0  0  0  0  0  0  0  0  0  0
   -2.8427    0.8308    0.0000 N   0  0  0  0  0  0  0  0  0  0  0  0
   -4.0745    1.6866    0.0000 C   0  0  0  0  0  0  0  0  0  0  0  0
   -5.4316    1.0478    0.0000 O   0  0  0  0  0  0  0  0  0  0  0  0
   -3.9492    3.1814    0.0000 C   0  0  0  0  0  0  0  0  0  0  0  0
   -2.5921    3.8203    0.0000 O   0  0  0  0  0  0  0  0  0  0  0  0
   -5.1811    4.0373    0.0000 C   0  0  0  0  0  0  0  0  0  0  0  0
   -5.0558    5.5320    0.0000 C   0  0  0  0  0  0  0  0  0  0  0  0
   -6.2876    6.3879    0.0000 N   0  0  0  0  0  0  0  0  0  0  0  0
   -0.2537    0.6138    0.0000 C   0  0  0  0  0  0  0  0  0  0  0  0
   -0.3789   -0.8810    0.0000 O   0  0  0  0  0  0  0  0  0  0  0  0
   -1.7361   -1.5199    0.0000 C   0  0  0  0  0  0  0  0  0  0  0  0
   -2.9679   -0.6640    0.0000 O   0  0  0  0  0  0  0  0  0  0  0  0
   -4.3251   -1.3029    0.0000 C   0  0  0  0  0  0  0  0  0  0  0  0
   -5.5569   -0.4470    0.0000 C   0  0  0  0  0  0  0  0  0  0  0  0
   -6.9141   -1.0859    0.0000 O   0  0  0  0  0  0  0  0  0  0  0  0
   -4.4504   -2.7976    0.0000 C   0  0  0  0  0  0  0  0  0  0  0  0
   -5.8075   -3.4365    0.0000 O   0  0  0  0  0  0  0  0  0  0  0  0
   -3.2185   -3.6535    0.0000 C   0  0  0  0  0  0  0  0  0  0  0  0
   -3.3438   -5.1483    0.0000 N   0  0  0  0  0  0  0  0  0  0  0  0
   -1.8614   -3.0146    0.0000 C   0  0  0  0  0  0  0  0  0  0  0  0
   -0.6295   -3.8705    0.0000 O   0  0  0  0  0  0  0  0  0  0  0  0
    1.1035    1.2526    0.0000 C   0  0  0  0  0  0  0  0  0  0  0  0
    2.3353    0.3968    0.0000 O   0  0  0  0  0  0  0  0  0  0  0  0
    5.1749    3.1693    0.0000 C   0  0  0  0  0  0  0  0  0  0  0  0
    5.3002    4.6640    0.0000 O   0  0  0  0  0  0  0  0  0  0  0  0
    6.4068    2.3134    0.0000 C   0  0  0  0  0  0  0  0  0  0  0  0
    7.7639    2.9523    0.0000 O   0  0  0  0  0  0  0  0  0  0  0  0
    6.2815    0.8186    0.0000 C   0  0  0  0  0  0  0  0  0  0  0  0
    7.5133   -0.0373    0.0000 O   0  0  0  0  0  0  0  0  0  0  0  0
  1  2  1  0
  2  3  1  0
  3  4  1  0
  4  5  1  6
  4  6  1  0
  6  7  2  0
  6  8  1  0
  8  9  1  0
 10  9  1  6
 10 11  1  0
 11 12  1  0
 12 13  1  6
 14 13  1  1
 14 15  1  0
 15 16  1  6
 15 17  1  0
 17 18  1  0
 18 19  1  6
 19 20  1  0
 20 21  2  0
 20 22  1  0
 22 23  1  6
 22 24  1  0
 24 25  1  0
 25 26  1  0
 18 27  1  0
 27 28  1  1
 29 28  1  6
 29 30  1  0
 30 31  1  0
 31 32  1  6
 32 33  1  0
 31 34  1  0
 34 35  1  6
 34 36  1  0
 36 37  1  1
 36 38  1  0
 38 39  1  6
 27 40  1  0
 40 41  1  1
 12 42  1  0
 42 43  1  6
 42 44  1  0
 44 45  1  6
 44 46  1  0
 46 47  1  6
 46 10  1  0
 40 14  1  0
 38 29  1  0
M  END
>  <zinc_id>  (1) 
ZINC000077291604

>  <smiles>  (1) 
NCC[C@H](O)C(=O)NC[C@@H]1O[C@H](O[C@@H]2[C@@H](N)C[C@@H](NC(=O)[C@@H](O)CCN)[C@H](O[C@H]3O[C@@H](CO)[C@@H](O)[C@H](N)[C@H]3O)[C@@H]2O)[C@H](O)[C@H](O)[C@@H]1O

$$$$
