
     RDKit          3D

 22 23  0  0  0  0  0  0  0  0999 V2000
    4.1688    2.7094   -0.8741 C   0  0  0  0  0  0  0  0  0  0  0  0
    3.2893    1.5137   -1.0793 O   0  0  0  0  0  0  0  0  0  0  0  0
    3.5577    0.5445   -0.1218 C   0  0  0  0  0  0  0  0  0  0  0  0
    4.5565    0.5207    0.7904 C   0  0  0  0  0  0  0  0  0  0  0  0
    4.6415   -0.5435    1.7136 C   0  0  0  0  0  0  0  0  0  0  0  0
    3.7209   -1.5265    1.6582 C   0  0  0  0  0  0  0  0  0  0  0  0
    2.6913   -1.5105    0.7171 C   0  0  0  0  0  0  0  0  0  0  0  0
    2.6271   -0.4786   -0.1658 C   0  0  0  0  0  0  0  0  0  0  0  0
    1.6585   -0.3413   -1.2043 O   0  0  0  0  0  0  0  0  0  0  0  0
    0.6677   -1.3958   -1.3634 C   0  0  1  0  0  0  0  0  0  0  0  0
    1.3520   -2.5156   -2.2024 C   0  0  0  0  0  0  0  0  0  0  0  0
    0.0346   -1.9044   -0.1258 C   0  0  0  0  0  0  0  0  0  0  0  0
   -0.8710   -1.0255    0.5476 N   0  0  0  0  0  0  0  0  0  0  0  0
   -1.9211   -0.5283   -0.7267 C   0  0  0  0  0  0  0  0  0  0  0  0
   -1.4426   -1.1099   -1.5603 O   0  0  0  0  0  0  0  0  0  0  0  0
   -2.8730    0.3555   -0.0770 C   0  0  0  0  0  0  0  0  0  0  0  0
   -2.3666    1.1648    1.0739 C   0  0  0  0  0  0  0  0  0  0  0  0
   -3.3256    1.9095    1.8476 C   0  0  0  0  0  0  0  0  0  0  0  0
   -4.7214    1.7391    1.3262 C   0  0  0  0  0  0  0  0  0  0  0  0
   -5.0108    1.0727    0.3778 N   0  0  0  0  0  4  0  0  0  0  0  0
   -6.3232    1.0021   -0.1794 O   0  0  0  0  0  1  0  0  0  0  0  0
   -4.1107    0.3480   -0.3721 C   0  0  0  0  0  0  0  0  0  0  0  0
  1  2  1  0
  2  3  1  0
  3  4  2  0
  4  5  1  0
  5  6  2  0
  6  7  1  0
  7  8  2  0
  8  9  1  0
  9 10  1  0
 10 11  1  1
 10 12  1  0
 12 13  1  0
 13 14  1  0
 14 15  2  0
 14 16  1  0
 16 17  2  0
 17 18  1  0
 18 19  2  0
 19 20  1  0
 20 21  1  0
 20 22  2  0
  8  3  1  0
 22 16  1  0
M  CHG  2  20   1  21  -1
M  END
>  <zinc_id>  (1) 
ZINC000081095757

>  <smiles>  (1) 
COc1ccccc1O[C@@H](C)CNC(=O)c1ccc[n+]([O-])c1

$$$$
