
     RDKit          3D

 32 36  0  0  0  0  0  0  0  0999 V2000
    2.7285   -2.3353   -1.5132 C   0  0  0  0  0  0  0  0  0  0  0  0
    3.4815   -1.1159   -1.1566 C   0  0  0  0  0  0  0  0  0  0  0  0
    3.0341    0.0674   -1.4038 N   0  0  0  0  0  0  0  0  0  0  0  0
    1.8121    0.2175   -2.0219 N   0  0  0  0  0  0  0  0  0  0  0  0
    0.7286    0.9515   -1.4407 C   0  0  0  0  0  0  0  0  0  0  0  0
    0.6660    1.5960   -0.2708 N   0  0  0  0  0  0  0  0  0  0  0  0
   -0.5405    2.1630   -0.0971 C   0  0  0  0  0  0  0  0  0  0  0  0
   -1.0486    3.1168    1.3265 S   0  0  0  0  0  0  0  0  0  0  0  0
   -2.7493    3.6854    1.1324 C   0  0  0  0  0  0  0  0  0  0  0  0
   -3.6598    2.4849    1.1435 C   0  0  0  0  0  0  0  0  0  0  0  0
   -4.2442    1.9220    2.2159 N   0  0  0  0  0  0  0  0  0  0  0  0
   -4.9900    0.8578    1.8159 C   0  0  0  0  0  0  0  0  0  0  0  0
   -5.7835   -0.0647    2.4646 C   0  0  0  0  0  0  0  0  0  0  0  0
   -6.4448   -1.0720    1.7862 C   0  0  0  0  0  0  0  0  0  0  0  0
   -6.3274   -1.1826    0.4264 C   0  0  0  0  0  0  0  0  0  0  0  0
   -7.0120   -2.2221   -0.2528 N   0  0  0  0  0  4  0  0  0  0  0  0
   -6.8892   -2.3002   -1.4859 O   0  0  0  0  0  0  0  0  0  0  0  0
   -7.7851   -3.1105    0.4373 O   0  0  0  0  0  1  0  0  0  0  0  0
   -5.5342   -0.2614   -0.2258 C   0  0  0  0  0  0  0  0  0  0  0  0
   -4.8635    0.7569    0.4444 C   0  0  0  0  0  0  0  0  0  0  0  0
   -4.0543    1.7562    0.0848 N   0  0  0  0  0  0  0  0  0  0  0  0
   -1.2355    1.8490   -1.2064 N   0  0  0  0  0  0  0  0  0  0  0  0
   -0.4714    1.1160   -2.0221 N   0  0  0  0  0  0  0  0  0  0  0  0
    4.7879   -1.2348   -0.4972 C   0  0  0  0  0  0  0  0  0  0  0  0
    5.2869   -2.5015   -0.2222 C   0  0  0  0  0  0  0  0  0  0  0  0
    6.5127   -2.6113    0.3967 C   0  0  0  0  0  0  0  0  0  0  0  0
    7.2639   -1.5065    0.7536 C   0  0  0  0  0  0  0  0  0  0  0  0
    6.7284   -0.2592    0.4605 C   0  0  0  0  0  0  0  0  0  0  0  0
    5.5077   -0.0965   -0.1567 C   0  0  0  0  0  0  0  0  0  0  0  0
    7.6747    0.6777    0.9188 O   0  0  0  0  0  0  0  0  0  0  0  0
    8.9270   -0.0090    1.0286 C   0  0  0  0  0  0  0  0  0  0  0  0
    8.4933   -1.3347    1.3689 O   0  0  0  0  0  0  0  0  0  0  0  0
  1  2  1  0
  2  3  2  0
  3  4  1  0
  4  5  1  0
  5  6  2  0
  6  7  1  0
  7  8  1  0
  8  9  1  0
  9 10  1  0
 10 11  2  0
 11 12  1  0
 12 13  2  0
 13 14  1  0
 14 15  2  0
 15 16  1  0
 16 17  2  0
 16 18  1  0
 15 19  1  0
 19 20  2  0
 20 21  1  0
  7 22  2  0
 22 23  1  0
  2 24  1  0
 24 25  2  0
 25 26  1  0
 26 27  2  0
 27 28  1  0
 28 29  2  0
 28 30  1  0
 30 31  1  0
 31 32  1  0
 23  5  1  0
 29 24  1  0
 21 10  1  0
 32 27  1  0
 20 12  1  0
M  CHG  2  16   1  18  -1
M  END
>  <zinc_id>  (1) 
ZINC000021079507

>  <smiles>  (1) 
C/C(=N\Nc1nc(SCc2nc3ccc([N+](=O)[O-])cc3[nH]2)n[nH]1)c1ccc2c(c1)OCO2

$$$$
