
     RDKit          3D

 33 36  0  0  0  0  0  0  0  0999 V2000
    3.3548   -1.0324   -1.6848 O   0  0  0  0  0  0  0  0  0  0  0  0
    3.6423   -0.2383   -0.7590 C   0  0  0  0  0  0  0  0  0  0  0  0
    2.6142    0.6428   -0.3331 N   0  0  0  0  0  0  0  0  0  0  0  0
    1.3286    0.5993   -0.9451 N   0  0  0  0  0  0  0  0  0  0  0  0
    0.2328    0.5295   -0.0590 C   0  0  0  0  0  0  0  0  0  0  0  0
    0.3529    0.5511    1.3032 N   0  0  0  0  0  0  0  0  0  0  0  0
   -0.7212    0.4754    2.1060 C   0  0  0  0  0  0  0  0  0  0  0  0
   -1.9771    0.3743    1.6095 N   0  0  0  0  0  0  0  0  0  0  0  0
   -2.1546    0.3490    0.2625 C   0  0  0  0  0  0  0  0  0  0  0  0
   -3.4321    0.2321   -0.3417 N   0  0  0  0  0  0  0  0  0  0  0  0
   -4.6333    0.1459    0.4029 C   0  0  0  0  0  0  0  0  0  0  0  0
   -4.5802    0.2185    1.7902 C   0  0  0  0  0  0  0  0  0  0  0  0
   -5.7406    0.1421    2.5312 C   0  0  0  0  0  0  0  0  0  0  0  0
   -6.9577   -0.0076    1.8918 C   0  0  0  0  0  0  0  0  0  0  0  0
   -6.9925   -0.0785    0.5074 C   0  0  0  0  0  0  0  0  0  0  0  0
   -8.2220   -0.2284   -0.0419 N   0  0  0  0  0  0  0  0  0  0  0  0
   -8.2840   -0.3031   -1.3833 C   0  0  0  0  0  0  0  0  0  0  0  0
   -7.1707   -0.2350   -2.1858 C   0  0  0  0  0  0  0  0  0  0  0  0
   -5.9090   -0.0808   -1.6080 C   0  0  0  0  0  0  0  0  0  0  0  0
   -5.8546   -0.0043   -0.2393 C   0  0  0  0  0  0  0  0  0  0  0  0
   -1.0363    0.4283   -0.5578 C   0  0  0  0  0  0  0  0  0  0  0  0
   -1.2328    0.4086   -1.9649 N   0  0  0  0  0  4  0  0  0  0  0  0
   -1.5450   -0.6215   -2.5981 O   0  0  0  0  0  0  0  0  0  0  0  0
   -1.0632    1.6042   -2.6385 O   0  0  0  0  0  1  0  0  0  0  0  0
    4.9859   -0.2815   -0.2009 C   0  0  0  0  0  0  0  0  0  0  0  0
    5.3997    0.4799    0.8704 C   0  0  0  0  0  0  0  0  0  0  0  0
    6.6931    0.4181    1.3907 C   0  0  0  0  0  0  0  0  0  0  0  0
    7.6171   -0.4337    0.8250 C   0  0  0  0  0  0  0  0  0  0  0  0
    8.9473   -0.5080    1.3510 N   0  0  0  0  0  4  0  0  0  0  0  0
    9.3437    0.1577    2.3098 O   0  0  0  0  0  0  0  0  0  0  0  0
    9.8386   -1.3704    0.7542 O   0  0  0  0  0  1  0  0  0  0  0  0
    7.2210   -1.2002   -0.2459 C   0  0  0  0  0  0  0  0  0  0  0  0
    5.9348   -1.1332   -0.7564 C   0  0  0  0  0  0  0  0  0  0  0  0
  1  2  2  0
  2  3  1  0
  3  4  1  0
  4  5  1  0
  5  6  2  0
  6  7  1  0
  7  8  2  0
  8  9  1  0
  9 10  1  0
 10 11  1  0
 11 12  2  0
 12 13  1  0
 13 14  2  0
 14 15  1  0
 15 16  2  0
 16 17  1  0
 17 18  2  0
 18 19  1  0
 19 20  2  0
  9 21  2  0
 21 22  1  0
 22 23  2  0
 22 24  1  0
  2 25  1  0
 25 26  2  0
 26 27  1  0
 27 28  2  0
 28 29  1  0
 29 30  2  0
 29 31  1  0
 28 32  1  0
 32 33  2  0
 21  5  1  0
 33 25  1  0
 20 11  1  0
 20 15  1  0
M  CHG  4  22   1  24  -1  29   1  31  -1
M  END
>  <zinc_id>  (1) 
ZINC000040658127

>  <smiles>  (1) 
O=C(NNc1ncnc(Nc2cccc3ncccc23)c1[N+](=O)[O-])c1ccc([N+](=O)[O-])cc1

$$$$
