
     RDKit          3D

 19 20  0  0  0  0  0  0  0  0999 V2000
    2.2710   -0.5690   -1.1130 O   0  0  0  0  0  0  0  0  0  0  0  0
    2.8067   -0.5809    0.0147 C   0  0  0  0  0  0  0  0  0  0  0  0
    2.1056   -0.9303    1.2670 C   0  0  0  0  0  0  0  0  0  0  0  0
    0.6661   -1.2744    1.0480 C   0  0  0  0  0  0  0  0  0  0  0  0
   -0.0794   -0.1853    0.4610 N   0  0  0  0  0  0  0  0  0  0  0  0
   -1.4617   -0.2668    0.1578 C   0  0  0  0  0  0  0  0  0  0  0  0
   -2.1878   -1.3807    0.3989 N   0  0  0  0  0  0  0  0  0  0  0  0
   -3.5011   -1.4488    0.1073 C   0  0  0  0  0  0  0  0  0  0  0  0
   -4.4228   -2.9247    0.4364 Cl  0  0  0  0  0  0  0  0  0  0  0  0
   -4.1593   -0.4105   -0.4395 N   0  0  0  0  0  0  0  0  0  0  0  0
   -3.4869    0.7240   -0.7012 C   0  0  0  0  0  0  0  0  0  0  0  0
   -3.8025    1.9183   -1.2237 N   0  0  0  0  0  0  0  0  0  0  0  0
   -2.7289    2.7199   -1.2642 C   0  0  0  0  0  0  0  0  0  0  0  0
   -1.7143    2.0180   -0.7570 N   0  0  0  0  0  0  0  0  0  0  0  0
   -2.1363    0.7969   -0.4025 C   0  0  0  0  0  0  0  0  0  0  0  0
    4.1920   -0.2355    0.1190 N   0  0  0  0  0  0  0  0  0  0  0  0
    4.9591    0.1210   -1.0590 C   0  0  0  0  0  0  0  0  0  0  0  0
    6.3728    0.4261   -0.5979 C   0  0  0  0  0  0  0  0  0  0  0  0
    6.3079    1.4826    0.3033 O   0  0  0  0  0  0  0  0  0  0  0  0
  1  2  2  0
  2  3  1  0
  3  4  1  0
  4  5  1  0
  5  6  1  0
  6  7  2  0
  7  8  1  0
  8  9  1  0
  8 10  2  0
 10 11  1  0
 11 12  1  0
 12 13  1  0
 13 14  2  0
 14 15  1  0
  2 16  1  0
 16 17  1  0
 17 18  1  0
 18 19  1  0
 15  6  1  0
 15 11  2  0
M  END
>  <zinc_id>  (1) 
ZINC000009477093

>  <smiles>  (1) 
O=C(CCNc1nc(Cl)nc2[nH]cnc12)NCCO

$$$$
