
     RDKit          3D

 21 23  0  0  0  0  0  0  0  0999 V2000
   -0.9488    1.0174    0.6750 O   0  0  0  0  0  0  0  0  0  0  0  0
   -1.1524    0.0271   -0.0832 C   0  0  0  0  0  0  0  0  0  0  0  0
   -2.3234   -0.0640   -0.9780 C   0  0  0  0  0  0  0  0  0  0  0  0
   -3.1408    1.2138   -0.7370 C   0  0  0  0  0  0  0  0  0  0  0  0
   -2.2902    2.2764   -1.0884 O   0  0  0  0  0  0  0  0  0  0  0  0
   -4.3766    1.2580   -1.5730 C   0  0  0  0  0  0  0  0  0  0  0  0
   -5.3746    0.2033   -1.2460 C   0  0  0  0  0  0  0  0  0  0  0  0
   -5.2332   -0.3498    0.1724 C   0  0  0  0  0  0  0  0  0  0  0  0
   -4.8074    0.7591    1.1046 C   0  0  0  0  0  0  0  0  0  0  0  0
   -3.4750    1.3268    0.7533 C   0  0  0  0  0  0  0  0  0  0  0  0
   -0.2241   -1.0789   -0.0973 N   0  0  0  0  0  0  0  0  0  0  0  0
    0.8738   -1.0566    0.7212 N   0  0  0  0  0  0  0  0  0  0  0  0
    2.1810   -1.3068    0.2482 C   0  0  0  0  0  0  0  0  0  0  0  0
    2.6361   -2.5465    0.0597 N   0  0  0  0  0  0  0  0  0  0  0  0
    3.8789   -2.7653   -0.3566 C   0  0  0  0  0  0  0  0  0  0  0  0
    4.6922   -1.7307   -0.5955 N   0  0  0  0  0  0  0  0  0  0  0  0
    4.2933   -0.4626   -0.4258 C   0  0  0  0  0  0  0  0  0  0  0  0
    4.8984    0.7508   -0.5833 N   0  0  0  0  0  0  0  0  0  0  0  0
    4.0111    1.6996   -0.2583 C   0  0  0  0  0  0  0  0  0  0  0  0
    2.8699    1.0767    0.0988 N   0  0  0  0  0  0  0  0  0  0  0  0
    3.0118   -0.2479    0.0051 C   0  0  0  0  0  0  0  0  0  0  0  0
  1  2  2  0
  2  3  1  0
  3  4  1  0
  4  5  1  0
  4  6  1  0
  6  7  1  0
  7  8  1  0
  8  9  1  0
  9 10  1  0
  2 11  1  0
 11 12  1  0
 12 13  1  0
 13 14  2  0
 14 15  1  0
 15 16  2  0
 16 17  1  0
 17 18  1  0
 18 19  1  0
 19 20  2  0
 20 21  1  0
 10  4  1  0
 21 13  1  0
 21 17  2  0
M  END
>  <zinc_id>  (1) 
ZINC000089494959

>  <smiles>  (1) 
O=C(CC1(O)CCCCC1)NNc1ncnc2[nH]cnc12

$$$$
