
     RDKit          3D

 28 30  0  0  0  0  0  0  0  0999 V2000
    4.2102   -1.9808   -0.0731 O   0  0  0  0  0  0  0  0  0  0  0  0
    3.0669   -2.4326    0.1188 C   0  0  0  0  0  0  0  0  0  0  0  0
    2.9878   -3.7727    0.5003 O   0  0  0  0  0  0  0  0  0  0  0  0
    1.8283   -1.6710   -0.0252 C   0  0  0  0  0  0  0  0  0  0  0  0
    0.6059   -2.2674    0.2543 C   0  0  0  0  0  0  0  0  0  0  0  0
   -0.5816   -1.5623    0.1500 C   0  0  0  0  0  0  0  0  0  0  0  0
   -1.8322   -2.1212    0.4209 N   0  0  0  0  0  0  0  0  0  0  0  0
   -3.0053   -1.2912    1.3480 S   0  0  0  0  0  0  0  0  0  0  0  0
   -2.3625   -1.0188    2.7072 O   0  0  0  0  0  0  0  0  0  0  0  0
   -4.1761   -2.2179    1.5791 O   0  0  0  0  0  0  0  0  0  0  0  0
   -3.5155    0.1986    0.6169 C   0  0  0  0  0  0  0  0  0  0  0  0
   -3.1033    0.6874   -0.5831 C   0  0  0  0  0  0  0  0  0  0  0  0
   -3.5507    1.8719   -1.1250 C   0  0  0  0  0  0  0  0  0  0  0  0
   -3.0707    2.2638   -2.3316 F   0  0  0  0  0  0  0  0  0  0  0  0
   -4.4703    2.6194   -0.4244 C   0  0  0  0  0  0  0  0  0  0  0  0
   -4.9174    2.1647    0.7960 C   0  0  0  0  0  0  0  0  0  0  0  0
   -4.4493    0.9712    1.3137 C   0  0  0  0  0  0  0  0  0  0  0  0
   -4.9060    0.5460    2.5181 F   0  0  0  0  0  0  0  0  0  0  0  0
   -0.4753   -0.2582   -0.2407 C   0  0  0  0  0  0  0  0  0  0  0  0
    0.6585    0.3533   -0.5174 N   0  0  0  0  0  0  0  0  0  0  0  0
    1.8281   -0.3535   -0.4116 C   0  0  0  0  0  0  0  0  0  0  0  0
    3.0454    0.3189   -0.7417 N   0  0  0  0  0  0  0  0  0  0  0  0
    3.7080   -0.1209   -1.9373 C   0  0  0  0  0  0  0  0  0  0  0  0
    4.5378    0.9270   -2.6015 C   0  0  0  0  0  0  0  0  0  0  0  0
    5.6316    1.4805   -1.7173 C   0  0  0  0  0  0  0  0  0  0  0  0
    5.1664    2.6892   -0.9381 C   0  0  0  0  0  0  0  0  0  0  0  0
    3.6858    2.6199   -0.6292 C   0  0  0  0  0  0  0  0  0  0  0  0
    3.4555    1.3568    0.1699 C   0  0  0  0  0  0  0  0  0  0  0  0
  1  2  2  0
  2  3  1  0
  2  4  1  0
  4  5  2  0
  5  6  1  0
  6  7  1  0
  7  8  1  0
  8  9  2  0
  8 10  2  0
  8 11  1  0
 11 12  2  0
 12 13  1  0
 13 14  1  0
 13 15  2  0
 15 16  1  0
 16 17  2  0
 17 18  1  0
  6 19  2  0
 19 20  1  0
 20 21  2  0
 21 22  1  0
 22 23  1  0
 23 24  1  0
 24 25  1  0
 25 26  1  0
 26 27  1  0
 27 28  1  0
 21  4  1  0
 28 22  1  0
 17 11  1  0
M  END
>  <zinc_id>  (1) 
ZINC000035397440

>  <smiles>  (1) 
O=C(O)c1cc(NS(=O)(=O)c2cc(F)ccc2F)cnc1N1CCCCCC1

$$$$
