
     RDKit          3D

 29 32  0  0  0  0  0  0  0  0999 V2000
   -7.0034    1.7051   -2.5101 O   0  0  0  0  0  0  0  0  0  0  0  0
   -7.2945    1.4903   -1.3213 N   0  0  0  0  0  4  0  0  0  0  0  0
   -8.4849    1.9601   -0.8386 O   0  0  0  0  0  1  0  0  0  0  0  0
   -6.3876    0.7598   -0.5007 C   0  0  0  0  0  0  0  0  0  0  0  0
   -6.7306    0.4932    0.8183 C   0  0  0  0  0  0  0  0  0  0  0  0
   -5.8926   -0.2193    1.6543 C   0  0  0  0  0  0  0  0  0  0  0  0
   -4.6700   -0.6943    1.1927 C   0  0  0  0  0  0  0  0  0  0  0  0
   -3.6973   -1.4048    1.7926 N   0  0  0  0  0  0  0  0  0  0  0  0
   -2.7015   -1.6134    0.8732 C   0  0  0  0  0  0  0  0  0  0  0  0
   -1.4604   -2.3777    1.1436 C   0  0  0  0  0  0  0  0  0  0  0  0
   -0.1192   -1.4159    1.8189 S   0  0  0  0  0  0  0  0  0  0  0  0
    0.5455   -0.1951    0.7228 C   0  0  0  0  0  0  0  0  0  0  0  0
    0.1598    0.1162   -0.5165 N   0  0  0  0  0  0  0  0  0  0  0  0
    0.9570    1.0790   -1.0121 N   0  0  0  0  0  0  0  0  0  0  0  0
    1.8463    1.3810   -0.0953 C   0  0  0  0  0  0  0  0  0  0  0  0
    2.9232    2.3260   -0.1986 N   0  0  0  0  0  0  0  0  0  0  0  0
    4.2566    1.8392   -0.2636 N   0  0  0  0  0  0  0  0  0  0  0  0
    4.4303    0.5760   -0.4790 C   0  0  0  0  0  0  0  0  0  0  0  0
    5.6773   -0.1186   -0.5791 C   0  0  0  0  0  0  0  0  0  0  0  0
    5.6011   -1.4938   -0.8422 C   0  0  0  0  0  0  0  0  0  0  0  0
    6.7327   -2.2646   -0.9445 C   0  0  0  0  0  0  0  0  0  0  0  0
    7.9586   -1.6863   -0.7879 C   0  0  0  0  0  0  0  0  0  0  0  0
    8.0655   -0.3158   -0.5245 C   0  0  0  0  0  0  0  0  0  0  0  0
    9.3543    0.2021   -0.3766 O   0  0  0  0  0  0  0  0  0  0  0  0
    6.9232    0.4418   -0.4256 C   0  0  0  0  0  0  0  0  0  0  0  0
    1.6041    0.6054    0.9779 N   0  0  0  0  0  0  0  0  0  0  0  0
   -3.1093   -1.0160   -0.2593 N   0  0  0  0  0  0  0  0  0  0  0  0
   -4.3107   -0.4406   -0.1108 C   0  0  0  0  0  0  0  0  0  0  0  0
   -5.1733    0.2810   -0.9344 C   0  0  0  0  0  0  0  0  0  0  0  0
  1  2  2  0
  2  3  1  0
  2  4  1  0
  4  5  2  0
  5  6  1  0
  6  7  2  0
  7  8  1  0
  8  9  2  0
  9 10  1  0
 10 11  1  0
 11 12  1  0
 12 13  2  0
 13 14  1  0
 14 15  1  0
 15 16  1  0
 16 17  1  0
 17 18  2  0
 18 19  1  0
 19 20  2  0
 20 21  1  0
 21 22  2  0
 22 23  1  0
 23 24  1  0
 23 25  2  0
 15 26  2  0
  9 27  1  0
 27 28  1  0
 28 29  2  0
 29  4  1  0
 28  7  1  0
 26 12  1  0
 25 19  1  0
M  CHG  2   2   1   3  -1
M  END
>  <zinc_id>  (1) 
ZINC000020906616

>  <smiles>  (1) 
O=[N+]([O-])c1ccc2nc(CSc3n[nH]c(N/N=C/c4cccc(O)c4)n3)[nH]c2c1

$$$$
