
     RDKit          2D

 47 49  0  0  0  0  0  0  0  0999 V2000
    3.2151   -7.1628    0.0000 N   0  0  0  0  0  0  0  0  0  0  0  0
    2.5912   -5.7987    0.0000 C   0  0  0  0  0  0  0  0  0  0  0  0
    3.4606   -4.5763    0.0000 C   0  0  0  0  0  0  0  0  0  0  0  0
    2.8368   -3.2122    0.0000 C   0  0  0  0  0  0  0  0  0  0  0  0
    1.3435   -3.0705    0.0000 O   0  0  0  0  0  0  0  0  0  0  0  0
    3.7062   -1.9899    0.0000 C   0  0  0  0  0  0  0  0  0  0  0  0
    5.1995   -2.1316    0.0000 O   0  0  0  0  0  0  0  0  0  0  0  0
    3.0823   -0.6258    0.0000 N   0  0  0  0  0  0  0  0  0  0  0  0
    1.5890   -0.4840    0.0000 C   0  0  0  0  0  0  0  0  0  0  0  0
    0.7196   -1.7064    0.0000 C   0  0  0  0  0  0  0  0  0  0  0  0
   -0.7737   -1.5646    0.0000 C   0  0  0  0  0  0  0  0  0  0  0  0
   -1.6431   -2.7869    0.0000 N   0  0  0  0  0  0  0  0  0  0  0  0
   -3.1364   -2.6452    0.0000 C   0  0  0  0  0  0  0  0  0  0  0  0
   -3.7602   -1.2811    0.0000 O   0  0  0  0  0  0  0  0  0  0  0  0
   -4.0058   -3.8675    0.0000 C   0  0  0  0  0  0  0  0  0  0  0  0
   -3.3819   -5.2316    0.0000 O   0  0  0  0  0  0  0  0  0  0  0  0
   -5.4991   -3.7258    0.0000 C   0  0  0  0  0  0  0  0  0  0  0  0
   -6.3685   -4.9481    0.0000 C   0  0  0  0  0  0  0  0  0  0  0  0
   -7.8618   -4.8063    0.0000 N   0  0  0  0  0  0  0  0  0  0  0  0
   -1.3975   -0.2005    0.0000 C   0  0  0  0  0  0  0  0  0  0  0  0
   -2.8908   -0.0587    0.0000 O   0  0  0  0  0  0  0  0  0  0  0  0
   -3.5147    1.3054    0.0000 C   0  0  0  0  0  0  0  0  0  0  0  0
   -2.6453    2.5277    0.0000 O   0  0  0  0  0  0  0  0  0  0  0  0
   -3.2692    3.8918    0.0000 C   0  0  0  0  0  0  0  0  0  0  0  0
   -2.3998    5.1142    0.0000 C   0  0  0  0  0  0  0  0  0  0  0  0
   -3.0236    6.4783    0.0000 O   0  0  0  0  0  0  0  0  0  0  0  0
   -4.7624    4.0336    0.0000 C   0  0  0  0  0  0  0  0  0  0  0  0
   -5.3863    5.3977    0.0000 O   0  0  0  0  0  0  0  0  0  0  0  0
   -5.6319    2.8112    0.0000 C   0  0  0  0  0  0  0  0  0  0  0  0
   -7.1251    2.9530    0.0000 N   0  0  0  0  0  0  0  0  0  0  0  0
   -5.0080    1.4471    0.0000 C   0  0  0  0  0  0  0  0  0  0  0  0
   -5.8774    0.2248    0.0000 O   0  0  0  0  0  0  0  0  0  0  0  0
   -0.5281    1.0219    0.0000 C   0  0  0  0  0  0  0  0  0  0  0  0
   -1.1520    2.3860    0.0000 O   0  0  0  0  0  0  0  0  0  0  0  0
    0.9652    0.8801    0.0000 C   0  0  0  0  0  0  0  0  0  0  0  0
    1.8346    2.1024    0.0000 O   0  0  0  0  0  0  0  0  0  0  0  0
    3.3279    1.9607    0.0000 C   0  0  0  0  0  0  0  0  0  0  0  0
    3.9517    0.5966    0.0000 O   0  0  0  0  0  0  0  0  0  0  0  0
    5.4450    0.4548    0.0000 C   0  0  0  0  0  0  0  0  0  0  0  0
    6.0689   -0.9093    0.0000 C   0  0  0  0  0  0  0  0  0  0  0  0
    7.5622   -1.0511    0.0000 N   0  0  0  0  0  0  0  0  0  0  0  0
    6.3144    1.6771    0.0000 C   0  0  0  0  0  0  0  0  0  0  0  0
    7.8077    1.5354    0.0000 O   0  0  0  0  0  0  0  0  0  0  0  0
    5.6906    3.0413    0.0000 C   0  0  0  0  0  0  0  0  0  0  0  0
    6.5600    4.2636    0.0000 O   0  0  0  0  0  0  0  0  0  0  0  0
    4.1973    3.1830    0.0000 C   0  0  0  0  0  0  0  0  0  0  0  0
    3.5734    4.5471    0.0000 O   0  0  0  0  0  0  0  0  0  0  0  0
  1  2  1  0
  2  3  1  0
  3  4  1  0
  4  5  1  6
  4  6  1  0
  6  7  2  0
  6  8  1  0
  9  8  1  1
  9 10  1  0
 10 11  1  0
 11 12  1  1
 12 13  1  0
 13 14  2  0
 13 15  1  0
 15 16  1  1
 15 17  1  0
 17 18  1  0
 18 19  1  0
 11 20  1  0
 20 21  1  6
 22 21  1  6
 22 23  1  0
 23 24  1  0
 24 25  1  6
 25 26  1  0
 24 27  1  0
 27 28  1  6
 27 29  1  0
 29 30  1  1
 29 31  1  0
 31 32  1  6
 20 33  1  0
 33 34  1  6
 33 35  1  0
 35 36  1  1
 37 36  1  6
 37 38  1  0
 38 39  1  0
 39 40  1  6
 40 41  1  0
 39 42  1  0
 42 43  1  6
 42 44  1  0
 44 45  1  6
 44 46  1  0
 46 47  1  6
 35  9  1  0
 46 37  1  0
 31 22  1  0
M  END
>  <zinc_id>  (1) 
ZINC000077291590

>  <smiles>  (1) 
NCC[C@H](O)C(=O)N[C@H]1C[C@@H](NC(=O)[C@@H](O)CCN)[C@H](O[C@H]2O[C@@H](CO)[C@@H](O)[C@H](N)[C@H]2O)[C@H](O)[C@H]1O[C@H]1O[C@@H](CN)[C@@H](O)[C@@H](O)[C@H]1O

$$$$
