
     RDKit          3D

 22 23  0  0  0  0  0  0  0  0999 V2000
    0.0542    1.8853    1.0194 O   0  0  0  0  0  0  0  0  0  0  0  0
   -0.5629    0.9126    0.4172 C   0  0  0  0  0  0  0  0  0  0  0  0
   -1.9172    0.8593    0.4229 C   0  0  0  0  0  0  0  0  0  0  0  0
   -3.1102    0.7381    0.3804 O   0  0  0  0  0  0  0  0  0  0  0  0
   -3.6621   -0.4325    0.9318 C   0  0  0  0  0  0  0  0  0  0  0  0
   -5.1436   -0.3824    0.7861 C   0  0  0  0  0  0  0  0  0  0  0  0
   -5.9007   -1.3998    1.3519 C   0  0  0  0  0  0  0  0  0  0  0  0
   -7.2722   -1.4386    1.2715 C   0  0  0  0  0  0  0  0  0  0  0  0
   -7.9263   -0.4372    0.6081 C   0  0  0  0  0  0  0  0  0  0  0  0
   -7.2018    0.5955    0.0305 C   0  0  0  0  0  0  0  0  0  0  0  0
   -5.8268    0.6026    0.1308 C   0  0  0  0  0  0  0  0  0  0  0  0
    0.3873    0.0062   -0.1875 N   0  0  0  0  0  0  0  0  0  0  0  0
    1.7642    0.2097   -0.0982 N   0  0  0  0  0  0  0  0  0  0  0  0
    2.7211   -0.6173   -0.6990 C   0  0  0  0  0  0  0  0  0  0  0  0
    2.3008   -1.6039   -1.3559 O   0  0  0  0  0  0  0  0  0  0  0  0
    4.1418   -0.3232   -0.5534 C   0  0  0  0  0  0  0  0  0  0  0  0
    4.5650    0.7855    0.1410 C   0  0  0  0  0  0  0  0  0  0  0  0
    5.9204    1.0705    0.2798 C   0  0  0  0  0  0  0  0  0  0  0  0
    6.8653    0.2821   -0.2534 N   0  0  0  0  0  4  0  0  0  0  0  0
    8.1979    0.6055   -0.0906 O   0  0  0  0  0  1  0  0  0  0  0  0
    6.4739   -0.7999   -0.9316 C   0  0  0  0  0  0  0  0  0  0  0  0
    5.1320   -1.1182   -1.0921 C   0  0  0  0  0  0  0  0  0  0  0  0
  1  2  2  0
  2  3  1  0
  3  4  1  0
  4  5  1  0
  5  6  1  0
  6  7  2  0
  7  8  1  0
  8  9  2  0
  9 10  1  0
 10 11  2  0
  2 12  1  0
 12 13  1  0
 13 14  1  0
 14 15  2  0
 14 16  1  0
 16 17  2  0
 17 18  1  0
 18 19  2  0
 19 20  1  0
 19 21  1  0
 21 22  2  0
 11  6  1  0
 22 16  1  0
M  CHG  2  19   1  20  -1
M  END
>  <zinc_id>  (1) 
ZINC000078193210

>  <smiles>  (1) 
O=C(COCc1ccccc1)NNC(=O)c1cc[n+]([O-])cc1

$$$$
