
     RDKit          3D

 25 26  0  0  0  0  0  0  0  0999 V2000
    4.6292    2.9067    1.6627 C   0  0  0  0  0  0  0  0  0  0  0  0
    3.7531    1.9441    1.1094 O   0  0  0  0  0  0  0  0  0  0  0  0
    4.2526    0.7593    0.5760 C   0  0  0  0  0  0  0  0  0  0  0  0
    5.6091    0.4888    0.5706 C   0  0  0  0  0  0  0  0  0  0  0  0
    6.0665   -0.7026    0.0301 C   0  0  0  0  0  0  0  0  0  0  0  0
    7.7966   -1.0421    0.0260 Cl  0  0  0  0  0  0  0  0  0  0  0  0
    5.2117   -1.6410   -0.5094 C   0  0  0  0  0  0  0  0  0  0  0  0
    5.7506   -2.8963   -1.0735 C   0  0  0  0  0  0  0  0  0  0  0  0
    3.8602   -1.3444   -0.4907 C   0  0  0  0  0  0  0  0  0  0  0  0
    3.3755   -0.1627    0.0425 C   0  0  0  0  0  0  0  0  0  0  0  0
    1.9928    0.1464    0.0642 N   0  0  0  0  0  0  0  0  0  0  0  0
    0.9794   -0.6878   -0.4391 C   0  0  0  0  0  0  0  0  0  0  0  0
    1.2990   -1.7911   -0.9494 O   0  0  0  0  0  0  0  0  0  0  0  0
   -0.4322   -0.2355   -0.3499 C   0  0  0  0  0  0  0  0  0  0  0  0
   -1.3140   -1.3044   -0.9558 C   0  0  0  0  0  0  0  0  0  0  0  0
   -2.7115   -0.8990   -0.8882 N   0  0  0  0  0  0  0  0  0  0  0  0
   -3.3621   -0.6309    0.3475 C   0  0  0  0  0  0  0  0  0  0  0  0
   -2.7482   -0.7357    1.4284 O   0  0  0  0  0  0  0  0  0  0  0  0
   -4.7556   -0.2334    0.3115 C   0  0  0  0  0  0  0  0  0  0  0  0
   -5.4105    0.0333    1.5071 C   0  0  0  0  0  0  0  0  0  0  0  0
   -6.7362    0.4128    1.4941 C   0  0  0  0  0  0  0  0  0  0  0  0
   -7.3786    0.5177    0.2901 C   0  0  0  0  0  0  0  0  0  0  0  0
   -6.7751    0.2672   -0.8833 N   0  0  0  0  0  4  0  0  0  0  0  0
   -7.4701    0.3880   -2.0751 O   0  0  0  0  0  1  0  0  0  0  0  0
   -5.4821   -0.1013   -0.8458 C   0  0  0  0  0  0  0  0  0  0  0  0
  1  2  1  0
  2  3  1  0
  3  4  2  0
  4  5  1  0
  5  6  1  0
  5  7  2  0
  7  8  1  0
  7  9  1  0
  9 10  2  0
 10 11  1  0
 11 12  1  0
 12 13  2  0
 12 14  1  0
 14 15  1  0
 15 16  1  0
 16 17  1  0
 17 18  2  0
 17 19  1  0
 19 20  2  0
 20 21  1  0
 21 22  2  0
 22 23  1  0
 23 24  1  0
 23 25  2  0
 10  3  1  0
 25 19  1  0
M  CHG  2  23   1  24  -1
M  END
>  <zinc_id>  (1) 
ZINC000083014547

>  <smiles>  (1) 
COc1cc(Cl)c(C)cc1NC(=O)CCNC(=O)c1ccc[n+]([O-])c1

$$$$
