
     RDKit          3D

 19 20  0  0  0  0  0  0  0  0999 V2000
    2.9578    2.3779   -0.7547 N   0  0  0  0  0  0  0  0  0  0  0  0
    3.1693    1.0534   -0.2246 C   0  0  0  0  0  0  0  0  0  0  0  0
    4.4207    0.6923    0.2300 C   0  0  0  0  0  0  0  0  0  0  0  0
    4.5926   -0.5809    0.7310 C   0  0  0  0  0  0  0  0  0  0  0  0
    3.5444   -1.4421    0.7675 N   0  0  0  0  0  0  0  0  0  0  0  0
    2.3235   -1.0948    0.3258 C   0  0  0  0  0  0  0  0  0  0  0  0
    1.1823   -2.0743    0.3798 C   0  0  0  0  0  0  0  0  0  0  0  0
   -0.0434   -1.4727   -0.0848 N   0  0  0  0  0  0  0  0  0  0  0  0
   -0.7810   -0.5650    0.7240 C   0  0  0  0  0  0  0  0  0  0  0  0
   -0.3316   -0.3074    1.8481 O   0  0  0  0  0  0  0  0  0  0  0  0
   -2.0050   -0.0061    0.1765 C   0  0  0  0  0  0  0  0  0  0  0  0
   -2.4617   -0.3253   -1.0821 C   0  0  0  0  0  0  0  0  0  0  0  0
   -1.6863   -1.2288   -1.8388 O   0  0  0  0  0  0  0  0  0  0  0  0
   -3.6246    0.2091   -1.5897 C   0  0  0  0  0  0  0  0  0  0  0  0
   -4.3839    1.0905   -0.8551 C   0  0  0  0  0  0  0  0  0  0  0  0
   -3.9425    1.4205    0.4040 C   0  0  0  0  0  0  0  0  0  0  0  0
   -2.7797    0.8865    0.9121 C   0  0  0  0  0  0  0  0  0  0  0  0
   -2.3260    1.2146    2.1840 O   0  0  0  0  0  0  0  0  0  0  0  0
    2.1751    0.1526   -0.1600 N   0  0  0  0  0  0  0  0  0  0  0  0
  1  2  1  0
  2  3  2  0
  3  4  1  0
  4  5  2  0
  5  6  1  0
  6  7  1  0
  7  8  1  0
  8  9  1  0
  9 10  2  0
  9 11  1  0
 11 12  2  0
 12 13  1  0
 12 14  1  0
 14 15  2  0
 15 16  1  0
 16 17  2  0
 17 18  1  0
  6 19  2  0
 19  2  1  0
 17 11  1  0
M  END
>  <zinc_id>  (1) 
ZINC000092125137

>  <smiles>  (1) 
Nc1ccnc(CNC(=O)c2c(O)cccc2O)n1

$$$$
