
     RDKit          3D

 28 30  0  0  0  0  0  0  0  0999 V2000
    0.6187    2.3040    0.1307 C   0  0  0  0  0  0  0  0  0  0  0  0
    0.1496    1.3018   -1.0968 C   0  0  1  0  0  0  0  0  0  0  0  0
    1.5497    0.6033   -1.2105 N   0  0  0  0  0  0  0  0  0  0  0  0
    2.1051    0.1009   -0.0313 C   0  0  0  0  0  0  0  0  0  0  0  0
    1.4485    0.2146    1.0476 O   0  0  0  0  0  0  0  0  0  0  0  0
    3.4072   -0.5648    0.1130 C   0  0  0  0  0  0  0  0  0  0  0  0
    3.5577   -1.9140    0.3209 C   0  0  0  0  0  0  0  0  0  0  0  0
    4.8294   -2.4827    0.4838 C   0  0  0  0  0  0  0  0  0  0  0  0
    5.8939   -1.6055    0.4218 C   0  0  0  0  0  0  0  0  0  0  0  0
    5.7566   -0.2516    0.2149 C   0  0  0  0  0  0  0  0  0  0  0  0
    6.8920    0.6263    0.1697 N   0  0  0  0  0  4  0  0  0  0  0  0
    6.7283    1.8553   -0.0126 O   0  0  0  0  0  0  0  0  0  0  0  0
    8.1746    0.2023    0.3170 O   0  0  0  0  0  1  0  0  0  0  0  0
    4.5188    0.2822    0.0590 C   0  0  0  0  0  0  0  0  0  0  0  0
   -0.5273    0.1995   -0.1594 C   0  0  0  0  0  0  0  0  0  0  0  0
   -0.2983   -1.0007   -0.4251 O   0  0  0  0  0  0  0  0  0  0  0  0
   -1.3268    0.6498    0.8978 N   0  0  0  0  0  0  0  0  0  0  0  0
   -1.5045    2.0646    1.1321 C   0  0  0  0  0  0  0  0  0  0  0  0
   -1.9665   -0.2970    1.7141 C   0  0  0  0  0  0  0  0  0  0  0  0
   -3.3955   -0.4717    1.3316 C   0  0  0  0  0  0  0  0  0  0  0  0
   -4.1107   -1.6034    1.6765 C   0  0  0  0  0  0  0  0  0  0  0  0
   -5.4435   -1.7269    1.3417 C   0  0  0  0  0  0  0  0  0  0  0  0
   -6.1347   -0.7433    0.6542 C   0  0  0  0  0  0  0  0  0  0  0  0
   -5.4185    0.3894    0.3081 C   0  0  0  0  0  0  0  0  0  0  0  0
   -4.0715    0.5121    0.6465 C   0  0  0  0  0  0  0  0  0  0  0  0
   -6.3277    1.2009   -0.3562 O   0  0  0  0  0  0  0  0  0  0  0  0
   -7.6581    0.7628   -0.1459 C   0  0  0  0  0  0  0  0  0  0  0  0
   -7.4465   -0.6083    0.2030 O   0  0  0  0  0  0  0  0  0  0  0  0
  2  1  1  1
  2  3  1  0
  3  4  1  0
  4  5  2  0
  4  6  1  0
  6  7  2  0
  7  8  1  0
  8  9  2  0
  9 10  1  0
 10 11  1  0
 11 12  2  0
 11 13  1  0
 10 14  2  0
  2 15  1  0
 15 16  2  0
 15 17  1  0
 17 18  1  0
 17 19  1  0
 19 20  1  0
 20 21  2  0
 21 22  1  0
 22 23  2  0
 23 24  1  0
 24 25  2  0
 24 26  1  0
 26 27  1  0
 27 28  1  0
 14  6  1  0
 25 20  1  0
 28 23  1  0
M  CHG  2  11   1  13  -1
M  END
>  <zinc_id>  (1) 
ZINC000057639051

>  <smiles>  (1) 
C[C@@H](NC(=O)c1cccc([N+](=O)[O-])c1)C(=O)N(C)Cc1ccc2c(c1)OCO2

$$$$
