
     RDKit          3D

 23 25  0  0  0  0  0  0  0  0999 V2000
    2.2604    2.2649   -0.4317 O   0  0  0  0  0  0  0  0  0  0  0  0
    2.6037    1.1078   -0.1313 C   0  0  0  0  0  0  0  0  0  0  0  0
    1.6403    0.1741    0.2983 N   0  0  0  0  0  0  0  0  0  0  0  0
    0.2708    0.4754    0.4153 N   0  0  0  0  0  0  0  0  0  0  0  0
   -0.7336   -0.2296   -0.2761 C   0  0  0  0  0  0  0  0  0  0  0  0
   -0.5450   -1.1494   -1.0310 O   0  0  0  0  0  0  0  0  0  0  0  0
   -2.1956    0.3258    0.0481 C   0  0  2  0  0  0  0  0  0  0  0  0
   -2.3891   -0.6785    1.4000 C   0  0  0  0  0  0  0  0  0  0  0  0
   -3.7599   -0.5658    1.6633 O   0  0  0  0  0  0  0  0  0  0  0  0
   -4.7337   -0.4855    0.6809 C   0  0  0  0  0  0  0  0  0  0  0  0
   -6.0725   -0.3583    1.0168 C   0  0  0  0  0  0  0  0  0  0  0  0
   -6.9836   -0.2852   -0.0179 C   0  0  0  0  0  0  0  0  0  0  0  0
   -6.6276   -0.3324   -1.3496 C   0  0  0  0  0  0  0  0  0  0  0  0
   -5.2823   -0.4594   -1.6270 C   0  0  0  0  0  0  0  0  0  0  0  0
   -4.3308   -0.5365   -0.6320 C   0  0  0  0  0  0  0  0  0  0  0  0
   -2.9662   -0.6652   -0.8694 O   0  0  0  0  0  0  0  0  0  0  0  0
    3.9953    0.7055   -0.2180 C   0  0  0  0  0  0  0  0  0  0  0  0
    4.3631   -0.6114    0.0410 C   0  0  0  0  0  0  0  0  0  0  0  0
    5.6863   -0.9591   -0.0434 C   0  0  0  0  0  0  0  0  0  0  0  0
    6.6118   -0.0665   -0.3646 N   0  0  0  0  0  4  0  0  0  0  0  0
    7.9245   -0.4703   -0.4298 O   0  0  0  0  0  1  0  0  0  0  0  0
    6.2867    1.1982   -0.6164 C   0  0  0  0  0  0  0  0  0  0  0  0
    4.9769    1.6014   -0.5470 C   0  0  0  0  0  0  0  0  0  0  0  0
  1  2  2  0
  2  3  1  0
  3  4  1  0
  4  5  1  0
  5  6  2  0
  7  5  1  6
  7  8  1  0
  8  9  1  0
  9 10  1  0
 10 11  2  0
 11 12  1  0
 12 13  2  0
 13 14  1  0
 14 15  2  0
 15 16  1  0
  2 17  1  0
 17 18  2  0
 18 19  1  0
 19 20  2  0
 20 21  1  0
 20 22  1  0
 22 23  2  0
 16  7  1  0
 23 17  1  0
 15 10  1  0
M  CHG  2  20   1  21  -1
M  END
>  <zinc_id>  (1) 
ZINC000049949931

>  <smiles>  (1) 
O=C(NNC(=O)[C@@H]1COc2ccccc2O1)c1cc[n+]([O-])cc1

$$$$
