
     RDKit          3D

 29 32  0  0  0  0  0  0  0  0999 V2000
   -8.1698    1.8147    2.3529 O   0  0  0  0  0  0  0  0  0  0  0  0
   -7.2420    1.9474    1.5437 N   0  0  0  0  0  4  0  0  0  0  0  0
   -6.9281    3.1231    0.9075 O   0  0  0  0  0  1  0  0  0  0  0  0
   -6.4246    0.7999    1.2494 C   0  0  0  0  0  0  0  0  0  0  0  0
   -6.7552   -0.3900    1.8513 C   0  0  0  0  0  0  0  0  0  0  0  0
   -6.0238   -1.5133    1.6053 C   0  0  0  0  0  0  0  0  0  0  0  0
   -4.9514   -1.4470    0.7530 C   0  0  0  0  0  0  0  0  0  0  0  0
   -4.0665   -2.3412    0.3289 N   0  0  0  0  0  0  0  0  0  0  0  0
   -3.1703   -1.7545   -0.5322 C   0  0  0  0  0  0  0  0  0  0  0  0
   -2.0814   -2.5575   -1.1457 C   0  0  0  0  0  0  0  0  0  0  0  0
   -0.6020   -2.6368   -0.1173 S   0  0  0  0  0  0  0  0  0  0  0  0
    0.1562   -1.0002   -0.1082 C   0  0  0  0  0  0  0  0  0  0  0  0
   -0.0677    0.0347    0.7006 N   0  0  0  0  0  0  0  0  0  0  0  0
    0.7578    1.0184    0.3546 N   0  0  0  0  0  0  0  0  0  0  0  0
    1.5139    0.6496   -0.6598 C   0  0  0  0  0  0  0  0  0  0  0  0
    2.5766    1.3193   -1.3784 N   0  0  0  0  0  0  0  0  0  0  0  0
    3.8563    0.9124   -0.9485 N   0  0  0  0  0  0  0  0  0  0  0  0
    4.9194    0.9530   -1.6353 C   0  0  0  0  0  0  0  0  0  0  0  0
    6.2177    0.5185   -1.1430 C   0  0  0  0  0  0  0  0  0  0  0  0
    7.3245    0.5955   -1.9841 C   0  0  0  0  0  0  0  0  0  0  0  0
    8.5694    0.1693   -1.5329 C   0  0  0  0  0  0  0  0  0  0  0  0
    8.7846   -0.3390   -0.2705 C   0  0  0  0  0  0  0  0  0  0  0  0
    9.9958   -0.7708    0.2131 O   0  0  0  0  0  0  0  0  0  0  0  0
    7.6618   -0.4121    0.5708 C   0  0  0  0  0  0  0  0  0  0  0  0
    6.4433    0.0107    0.1126 C   0  0  0  0  0  0  0  0  0  0  0  0
    1.1500   -0.6040   -0.9597 N   0  0  0  0  0  0  0  0  0  0  0  0
   -3.4927   -0.4651   -0.6570 N   0  0  0  0  0  0  0  0  0  0  0  0
   -4.5920   -0.2459    0.1271 C   0  0  0  0  0  0  0  0  0  0  0  0
   -5.3599    0.8693    0.4017 C   0  0  0  0  0  0  0  0  0  0  0  0
  1  2  2  0
  2  3  1  0
  2  4  1  0
  4  5  2  0
  5  6  1  0
  6  7  2  0
  7  8  1  0
  8  9  2  0
  9 10  1  0
 10 11  1  0
 11 12  1  0
 12 13  2  0
 13 14  1  0
 14 15  1  0
 15 16  1  0
 16 17  1  0
 17 18  2  0
 18 19  1  0
 19 20  2  0
 20 21  1  0
 21 22  2  0
 22 23  1  0
 22 24  1  0
 24 25  2  0
 15 26  2  0
  9 27  1  0
 27 28  1  0
 28 29  2  0
 29  4  1  0
 28  7  1  0
 26 12  1  0
 25 19  1  0
M  CHG  2   2   1   3  -1
M  END
>  <zinc_id>  (1) 
ZINC000021078115

>  <smiles>  (1) 
O=[N+]([O-])c1ccc2nc(CSc3n[nH]c(N/N=C/c4ccc(O)cc4)n3)[nH]c2c1

$$$$
