
     RDKit          3D

 31 34  0  0  0  0  0  0  0  0999 V2000
   -1.9647    0.2801    0.3272 O   0  0  0  0  0  0  0  0  0  0  0  0
   -2.4797   -0.4431    1.2182 C   0  0  0  0  0  0  0  0  0  0  0  0
   -1.6006   -1.1125    2.1702 C   0  0  0  0  0  0  0  0  0  0  0  0
   -0.2176   -0.8888    2.0413 N   0  0  0  0  0  0  0  0  0  0  0  0
    0.4427   -1.2404    0.8697 C   0  0  0  0  0  0  0  0  0  0  0  0
   -0.2490   -1.7557   -0.0496 O   0  0  0  0  0  0  0  0  0  0  0  0
    1.7733   -1.1245    0.5125 N   0  0  0  0  0  0  0  0  0  0  0  0
    2.2294   -1.6129   -0.8968 C   0  0  2  0  0  0  0  0  0  0  0  0
    3.8113   -1.8064   -0.4101 C   0  0  0  0  0  0  0  0  0  0  0  0
    4.3433   -0.5786    0.0481 C   0  0  0  0  0  0  0  0  0  0  0  0
    5.3979    0.0539   -0.4276 C   0  0  0  0  0  0  0  0  0  0  0  0
    6.2801   -0.2530   -1.4686 C   0  0  0  0  0  0  0  0  0  0  0  0
    7.3408    0.5563   -1.8118 C   0  0  0  0  0  0  0  0  0  0  0  0
    7.5629    1.7304   -1.1098 C   0  0  0  0  0  0  0  0  0  0  0  0
    6.7064    2.0414   -0.0899 C   0  0  0  0  0  0  0  0  0  0  0  0
    5.6342    1.2186    0.2540 C   0  0  0  0  0  0  0  0  0  0  0  0
    4.7783    1.3963    1.1751 N   0  0  0  0  0  0  0  0  0  0  0  0
    3.8600    0.2808    1.1571 C   0  0  0  0  0  0  0  0  0  0  0  0
    2.3454   -0.2838   -1.6848 C   0  0  0  0  0  0  0  0  0  0  0  0
    2.1161    0.7369   -1.0968 O   0  0  0  0  0  0  0  0  0  0  0  0
    2.6857   -0.2132   -2.9821 O   0  0  0  0  0  0  0  0  0  0  0  0
   -3.8822   -0.5404    1.2146 N   0  0  0  0  0  0  0  0  0  0  0  0
   -4.7555    0.0966    0.3076 C   0  0  0  0  0  0  0  0  0  0  0  0
   -4.2328    0.8584   -0.7111 C   0  0  0  0  0  0  0  0  0  0  0  0
   -5.0487    1.5043   -1.6207 C   0  0  0  0  0  0  0  0  0  0  0  0
   -6.3897    1.3791   -1.4979 C   0  0  0  0  0  0  0  0  0  0  0  0
   -6.9505    0.5991   -0.4566 C   0  0  0  0  0  0  0  0  0  0  0  0
   -8.2621    0.4403   -0.2849 N   0  0  0  0  0  0  0  0  0  0  0  0
   -8.3830   -0.5484    1.0580 S   0  0  0  0  0  0  0  0  0  0  0  0
   -6.7490   -0.7450    1.3813 N   0  0  0  0  0  0  0  0  0  0  0  0
   -6.1428   -0.0259    0.4232 C   0  0  0  0  0  0  0  0  0  0  0  0
  1  2  2  0
  2  3  1  0
  3  4  1  0
  4  5  1  0
  5  6  2  0
  5  7  1  0
  7  8  1  0
  8  9  1  1
  9 10  1  0
 10 11  2  0
 11 12  1  0
 12 13  2  0
 13 14  1  0
 14 15  2  0
 15 16  1  0
 16 17  2  0
 17 18  1  0
  8 19  1  0
 19 20  2  0
 19 21  1  0
  2 22  1  0
 22 23  1  0
 23 24  2  0
 24 25  1  0
 25 26  2  0
 26 27  1  0
 27 28  2  0
 28 29  1  0
 29 30  1  0
 30 31  2  0
 18 10  1  0
 31 23  1  0
 16 11  1  0
 31 27  1  0
M  END
>  <zinc_id>  (1) 
ZINC000064683340

>  <smiles>  (1) 
O=C(CNC(=O)N[C@H](CC1=c2ccccc2=NC1)C(=O)O)Nc1cccc2nsnc12

$$$$
