
     RDKit          3D

 21 24  0  0  0  0  0  0  0  0999 V2000
    6.2050    1.1793    0.3051 C   0  0  0  0  0  0  0  0  0  0  0  0
    4.8600    0.7249   -0.1517 C   0  0  0  0  0  0  0  0  0  0  0  0
    4.1260    1.4569   -1.0188 N   0  0  0  0  0  0  0  0  0  0  0  0
    2.9790    0.7908   -1.2329 C   0  0  0  0  0  0  0  0  0  0  0  0
    1.8626    1.0383   -2.0059 C   0  0  0  0  0  0  0  0  0  0  0  0
    0.7890    0.1648   -2.0485 C   0  0  0  0  0  0  0  0  0  0  0  0
    0.7796   -1.0048   -1.3164 C   0  0  0  0  0  0  0  0  0  0  0  0
   -0.3595   -1.9644   -1.3409 C   0  0  0  0  0  0  0  0  0  0  0  0
   -1.2910   -1.5593   -0.2625 C   0  0  0  0  0  0  0  0  0  0  0  0
   -1.2247   -2.0211    1.0278 C   0  0  0  0  0  0  0  0  0  0  0  0
   -2.1380   -1.5712    1.9185 C   0  0  0  0  0  0  0  0  0  0  0  0
   -3.1382   -0.6565    1.5623 C   0  0  0  0  0  0  0  0  0  0  0  0
   -3.1932   -0.2124    0.2990 C   0  0  0  0  0  0  0  0  0  0  0  0
   -2.2739   -0.6567   -0.6246 C   0  0  0  0  0  0  0  0  0  0  0  0
   -4.1345    0.5996    0.1176 N   0  0  0  0  0  0  0  0  0  0  0  0
   -4.8956    0.7877    1.4499 C   0  0  2  0  0  0  0  0  0  0  0  0
   -3.9887    2.1227    1.8994 C   0  0  0  0  0  0  0  0  0  0  0  0
   -4.0270   -0.1811    2.3104 N   0  0  0  0  0  0  0  0  0  0  0  0
    1.9057   -1.2281   -0.5532 C   0  0  0  0  0  0  0  0  0  0  0  0
    2.9866   -0.3736   -0.4946 C   0  0  0  0  0  0  0  0  0  0  0  0
    4.1708   -0.3738    0.1601 N   0  0  0  0  0  0  0  0  0  0  0  0
  1  2  1  0
  2  3  2  0
  3  4  1  0
  4  5  2  0
  5  6  1  0
  6  7  2  0
  7  8  1  0
  8  9  1  0
  9 10  1  0
 10 11  2  0
 11 12  1  0
 12 13  1  0
 13 14  1  0
 13 15  2  0
 15 16  1  0
 16 17  1  1
 16 18  1  0
  7 19  1  0
 19 20  2  0
 20 21  1  0
 21  2  1  0
 20  4  1  0
 14  9  2  0
 18 12  2  0
M  END
>  <zinc_id>  (1) 
ZINC000063427064

>  <smiles>  (1) 
Cc1nc2ccc(Cc3ccc4c(c3)=N[C@H](C)N=4)cc2[nH]1

$$$$
