
     RDKit          3D

 25 27  0  0  0  0  0  0  0  0999 V2000
   -1.0157   -0.2592    0.9426 O   0  0  0  0  0  0  0  0  0  0  0  0
   -1.0452   -0.8787   -0.1691 C   0  0  0  0  0  0  0  0  0  0  0  0
   -2.3232   -1.3177   -0.6080 N   0  0  0  0  0  0  0  0  0  0  0  0
   -3.5389   -1.1119    0.1016 C   0  0  0  0  0  0  0  0  0  0  0  0
   -3.6621    0.5741    0.2141 C   0  0  1  0  0  0  0  0  0  0  0  0
   -3.6705    0.7276   -1.3411 O   0  0  0  0  0  0  0  0  0  0  0  0
   -5.2702    0.5538    0.3406 C   0  0  0  0  0  0  0  0  0  0  0  0
   -5.7874    1.3307    1.3391 C   0  0  0  0  0  0  0  0  0  0  0  0
   -7.1888    1.3054    1.4400 C   0  0  0  0  0  0  0  0  0  0  0  0
   -7.9390    0.5743    0.6167 N   0  0  0  0  0  0  0  0  0  0  0  0
   -7.3898   -0.1634   -0.3370 C   0  0  0  0  0  0  0  0  0  0  0  0
   -6.0276   -0.1654   -0.4676 C   0  0  0  0  0  0  0  0  0  0  0  0
    0.1466   -1.1035   -0.9062 N   0  0  0  0  0  0  0  0  0  0  0  0
    1.3887   -0.6139   -0.3660 C   0  0  0  0  0  0  0  0  0  0  0  0
    1.4540    0.0538    0.8228 C   0  0  0  0  0  0  0  0  0  0  0  0
    2.6643    0.5011    1.2954 C   0  0  0  0  0  0  0  0  0  0  0  0
    3.8359    0.2954    0.5984 C   0  0  0  0  0  0  0  0  0  0  0  0
    5.1324    0.5982    0.7860 N   0  0  0  0  0  0  0  0  0  0  0  0
    5.8692    0.1412   -0.2445 C   0  0  0  0  0  0  0  0  0  0  0  0
    7.3597    0.2738   -0.4186 C   0  0  0  0  0  0  0  0  0  0  0  0
    7.9266   -0.9318   -0.0256 F   0  0  0  0  0  0  0  0  0  0  0  0
    7.7738    1.2755    0.4411 F   0  0  0  0  0  0  0  0  0  0  0  0
    5.0079   -0.4551   -1.0833 N   0  0  0  0  0  0  0  0  0  0  0  0
    3.7511   -0.3756   -0.5909 C   0  0  0  0  0  0  0  0  0  0  0  0
    2.5484   -0.8286   -1.0759 C   0  0  0  0  0  0  0  0  0  0  0  0
  1  2  2  0
  2  3  1  0
  3  4  1  0
  4  5  1  0
  5  6  1  6
  5  7  1  0
  7  8  2  0
  8  9  1  0
  9 10  2  0
 10 11  1  0
 11 12  2  0
  2 13  1  0
 13 14  1  0
 14 15  2  0
 15 16  1  0
 16 17  2  0
 17 18  1  0
 18 19  1  0
 19 20  1  0
 20 21  1  0
 20 22  1  0
 19 23  2  0
 23 24  1  0
 24 25  2  0
 12  7  1  0
 25 14  1  0
 24 17  1  0
M  END
>  <zinc_id>  (1) 
ZINC000093351388

>  <smiles>  (1) 
O=C(NC[C@@H](O)c1ccncc1)Nc1ccc2[nH]c(C(F)F)nc2c1

$$$$
