
     RDKit          3D

 21 24  0  0  0  0  0  0  0  0999 V2000
    5.5207    0.1399    3.3408 C   0  0  0  0  0  0  0  0  0  0  0  0
    4.5688    0.0710    2.1984 C   0  0  0  0  0  0  0  0  0  0  0  0
    4.4540   -0.8602    1.2352 N   0  0  0  0  0  0  0  0  0  0  0  0
    3.4468   -0.4766    0.4348 C   0  0  0  0  0  0  0  0  0  0  0  0
    2.9223   -1.0712   -0.6925 C   0  0  0  0  0  0  0  0  0  0  0  0
    1.8591   -0.4917   -1.3814 C   0  0  0  0  0  0  0  0  0  0  0  0
    1.3125    0.6960   -0.9397 C   0  0  0  0  0  0  0  0  0  0  0  0
    0.1682    1.3557   -1.6488 C   0  0  0  0  0  0  0  0  0  0  0  0
   -1.1544    0.9108   -1.1406 C   0  0  0  0  0  0  0  0  0  0  0  0
   -1.7298    1.6068   -0.1026 C   0  0  0  0  0  0  0  0  0  0  0  0
   -2.9452    1.2784    0.4383 C   0  0  0  0  0  0  0  0  0  0  0  0
   -3.6433    0.1812   -0.0853 C   0  0  0  0  0  0  0  0  0  0  0  0
   -3.0803   -0.4840   -1.0865 C   0  0  0  0  0  0  0  0  0  0  0  0
   -1.8375   -0.1452   -1.6369 C   0  0  0  0  0  0  0  0  0  0  0  0
   -3.8354   -1.4377   -1.4388 N   0  0  0  0  0  0  0  0  0  0  0  0
   -5.1012   -1.4571   -0.5793 C   0  0  1  0  0  0  0  0  0  0  0  0
   -4.5784   -2.5594    0.5239 C   0  0  0  0  0  0  0  0  0  0  0  0
   -4.7719   -0.2356    0.3142 N   0  0  0  0  0  0  0  0  0  0  0  0
    1.8700    1.2561    0.1942 C   0  0  0  0  0  0  0  0  0  0  0  0
    2.9230    0.6944    0.8874 C   0  0  0  0  0  0  0  0  0  0  0  0
    3.6319    1.0283    1.9909 N   0  0  0  0  0  0  0  0  0  0  0  0
  1  2  1  0
  2  3  2  0
  3  4  1  0
  4  5  2  0
  5  6  1  0
  6  7  2  0
  7  8  1  0
  8  9  1  0
  9 10  1  0
 10 11  2  0
 11 12  1  0
 12 13  1  0
 13 14  1  0
 13 15  2  0
 15 16  1  0
 16 17  1  1
 16 18  1  0
  7 19  1  0
 19 20  2  0
 20 21  1  0
 21  2  1  0
 20  4  1  0
 14  9  2  0
 18 12  2  0
M  END
>  <zinc_id>  (1) 
ZINC000063427063

>  <smiles>  (1) 
Cc1nc2ccc(Cc3ccc4c(c3)=N[C@@H](C)N=4)cc2[nH]1

$$$$
