
     RDKit          3D

 23 26  0  0  0  0  0  0  0  0999 V2000
   -6.4572    2.5286    0.7169 C   0  0  0  0  0  0  0  0  0  0  0  0
   -6.2952    1.1366    1.2404 C   0  0  0  0  0  0  0  0  0  0  0  0
   -5.0606    0.4868    0.7307 C   0  0  0  0  0  0  0  0  0  0  0  0
   -4.6300   -0.7345    1.0024 N   0  0  0  0  0  0  0  0  0  0  0  0
   -3.4842   -0.9425    0.3507 C   0  0  0  0  0  0  0  0  0  0  0  0
   -2.6082   -2.0075    0.2620 C   0  0  0  0  0  0  0  0  0  0  0  0
   -1.4686   -1.8783   -0.5380 C   0  0  0  0  0  0  0  0  0  0  0  0
   -1.2024   -0.7222   -1.2336 C   0  0  0  0  0  0  0  0  0  0  0  0
    0.0105   -0.6384   -2.0608 C   0  0  0  0  0  0  0  0  0  0  0  0
    1.1888   -0.1196   -1.3126 C   0  0  0  0  0  0  0  0  0  0  0  0
    1.4886    1.2232   -1.2480 C   0  0  0  0  0  0  0  0  0  0  0  0
    2.5910    1.6377   -0.5406 C   0  0  0  0  0  0  0  0  0  0  0  0
    3.4424    0.7352    0.1328 C   0  0  0  0  0  0  0  0  0  0  0  0
    3.1412   -0.5860    0.0651 C   0  0  0  0  0  0  0  0  0  0  0  0
    2.0078   -0.9885   -0.6646 C   0  0  0  0  0  0  0  0  0  0  0  0
    3.9753   -1.2951    0.7067 N   0  0  0  0  0  0  0  0  0  0  0  0
    5.0246   -0.3376    1.3214 C   0  0  1  0  0  0  0  0  0  0  0  0
    6.1065   -0.5243    0.0348 C   0  0  0  0  0  0  0  0  0  0  0  0
    7.2257    0.3876    0.5115 C   0  0  0  0  0  0  0  0  0  0  0  0
    4.4752    1.0055    0.8078 N   0  0  0  0  0  0  0  0  0  0  0  0
   -2.0784    0.3506   -1.1484 C   0  0  0  0  0  0  0  0  0  0  0  0
   -3.1927    0.2019   -0.3560 C   0  0  0  0  0  0  0  0  0  0  0  0
   -4.2003    1.0807   -0.0975 N   0  0  0  0  0  0  0  0  0  0  0  0
  1  2  1  0
  2  3  1  0
  3  4  2  0
  4  5  1  0
  5  6  2  0
  6  7  1  0
  7  8  2  0
  8  9  1  0
  9 10  1  0
 10 11  1  0
 11 12  2  0
 12 13  1  0
 13 14  1  0
 14 15  1  0
 14 16  2  0
 16 17  1  0
 17 18  1  6
 18 19  1  0
 17 20  1  0
  8 21  1  0
 21 22  2  0
 22 23  1  0
 23  3  1  0
 22  5  1  0
 15 10  2  0
 20 13  2  0
M  END
>  <zinc_id>  (1) 
ZINC000063427065

>  <smiles>  (1) 
CCc1nc2ccc(Cc3ccc4c(c3)=N[C@@H](CC)N=4)cc2[nH]1

$$$$
