
     RDKit          2D

 47 51  0  0  0  0  0  0  0  0999 V2000
   11.4903    2.9880    0.0000 N   0  0  0  0  0  0  0  0  0  0  0  0
   10.0095    2.7487    0.0000 C   0  0  0  0  0  0  0  0  0  0  0  0
    9.0619    3.9115    0.0000 C   0  0  0  0  0  0  0  0  0  0  0  0
    9.5951    5.3135    0.0000 O   0  0  0  0  0  0  0  0  0  0  0  0
    7.5811    3.6722    0.0000 C   0  0  0  0  0  0  0  0  0  0  0  0
    6.6335    4.8350    0.0000 C   0  0  0  0  0  0  0  0  0  0  0  0
    5.1527    4.5957    0.0000 O   0  0  0  0  0  0  0  0  0  0  0  0
    7.0479    2.2702    0.0000 O   0  0  0  0  0  0  0  0  0  0  0  0
    7.9956    1.1074    0.0000 C   0  0  0  0  0  0  0  0  0  0  0  0
    7.4624   -0.2946    0.0000 O   0  0  0  0  0  0  0  0  0  0  0  0
    5.9816   -0.5339    0.0000 C   0  0  0  0  0  0  0  0  0  0  0  0
    5.0340    0.6289    0.0000 C   0  0  0  0  0  0  0  0  0  0  0  0
    5.5672    2.0309    0.0000 N   0  0  0  0  0  0  0  0  0  0  0  0
    3.5532    0.3896    0.0000 C   0  0  0  0  0  0  0  0  0  0  0  0
    3.0200   -1.0124    0.0000 C   0  0  0  0  0  0  0  0  0  0  0  0
    1.5392   -1.2517    0.0000 N   0  0  0  0  0  0  0  0  0  0  0  0
    3.9676   -2.1752    0.0000 C   0  0  0  0  0  0  0  0  0  0  0  0
    3.4344   -3.5772    0.0000 O   0  0  0  0  0  0  0  0  0  0  0  0
    1.9536   -3.8165    0.0000 C   0  0  0  0  0  0  0  0  0  0  0  0
    1.0060   -2.6537    0.0000 O   0  0  0  0  0  0  0  0  0  0  0  0
   -0.4748   -2.8930    0.0000 C   0  0  0  0  0  0  0  0  0  0  0  0
   -1.4224   -1.7302    0.0000 C   0  0  0  0  0  0  0  0  0  0  0  0
   -2.9032   -1.9695    0.0000 N   0  0  0  0  0  0  0  0  0  0  0  0
   -3.8508   -0.8067    0.0000 C   0  0  0  0  0  0  0  0  0  0  0  0
   -3.3176    0.5953    0.0000 O   0  0  0  0  0  0  0  0  0  0  0  0
   -5.3316   -1.0460    0.0000 C   0  0  0  0  0  0  0  0  0  0  0  0
   -6.2792    0.1168    0.0000 C   0  0  0  0  0  0  0  0  0  0  0  0
   -7.7600   -0.1225    0.0000 C   0  0  0  0  0  0  0  0  0  0  0  0
   -8.7076    1.0403    0.0000 C   0  0  0  0  0  0  0  0  0  0  0  0
  -10.1884    0.8011    0.0000 C   0  0  0  0  0  0  0  0  0  0  0  0
  -10.8652   -0.5376    0.0000 S   0  0  0  0  0  0  0  0  0  0  0  0
  -12.3475   -0.3075    0.0000 C   0  0  0  0  0  0  0  0  0  0  0  0
  -12.5867    1.1733    0.0000 C   0  0  0  0  0  0  0  0  0  0  0  0
  -13.6507    2.2306    0.0000 N   0  0  0  0  0  0  0  0  0  0  0  0
  -12.9739    3.5692    0.0000 C   0  0  0  0  0  0  0  0  0  0  0  0
  -13.6590    4.9036    0.0000 O   0  0  0  0  0  0  0  0  0  0  0  0
  -11.4916    3.3392    0.0000 N   0  0  0  0  0  0  0  0  0  0  0  0
  -11.2524    1.8584    0.0000 C   0  0  0  0  0  0  0  0  0  0  0  0
   -1.0080   -4.2950    0.0000 C   0  0  0  0  0  0  0  0  0  0  0  0
   -2.4888   -4.5343    0.0000 O   0  0  0  0  0  0  0  0  0  0  0  0
   -0.0604   -5.4578    0.0000 C   0  0  0  0  0  0  0  0  0  0  0  0
    1.4204   -5.2185    0.0000 C   0  0  0  0  0  0  0  0  0  0  0  0
    2.3680   -6.3813    0.0000 N   0  0  0  0  0  0  0  0  0  0  0  0
    5.4484   -1.9359    0.0000 C   0  0  0  0  0  0  0  0  0  0  0  0
    6.3960   -3.0987    0.0000 O   0  0  0  0  0  0  0  0  0  0  0  0
    9.4763    1.3467    0.0000 C   0  0  0  0  0  0  0  0  0  0  0  0
   10.4240    0.1839    0.0000 O   0  0  0  0  0  0  0  0  0  0  0  0
  2  1  1  6
  2  3  1  0
  3  4  1  1
  3  5  1  0
  5  6  1  1
  6  7  1  0
  5  8  1  0
  8  9  1  0
  9 10  1  1
 11 10  1  1
 11 12  1  0
 12 13  1  1
 12 14  1  0
 14 15  1  0
 15 16  1  6
 15 17  1  0
 17 18  1  6
 19 18  1  6
 19 20  1  0
 20 21  1  0
 21 22  1  6
 22 23  1  0
 23 24  1  0
 24 25  2  0
 24 26  1  0
 26 27  1  0
 27 28  1  0
 28 29  1  0
 30 29  1  6
 30 31  1  0
 31 32  1  0
 33 32  1  6
 33 34  1  0
 34 35  1  0
 35 36  2  0
 35 37  1  0
 38 37  1  6
 21 39  1  0
 39 40  1  6
 39 41  1  0
 41 42  1  0
 42 43  1  6
 17 44  1  0
 44 45  1  6
  9 46  1  0
 46 47  1  1
 46  2  1  0
 44 11  1  0
 42 19  1  0
 38 30  1  0
 38 33  1  0
M  END
>  <zinc_id>  (1) 
ZINC000077273272

>  <smiles>  (1) 
N[C@H]1[C@H](O)[C@H](CO)O[C@H](O[C@@H]2[C@H](N)C[C@@H](N)[C@@H](O[C@H]3O[C@@H](CNC(=O)CCCC[C@@H]4SC[C@@H]5NC(=O)N[C@H]45)[C@@H](O)C[C@H]3N)[C@H]2O)[C@@H]1O

$$$$
