
     RDKit          3D

 20 21  0  0  0  0  0  0  0  0999 V2000
    3.5002    2.6969    2.0979 C   0  0  0  0  0  0  0  0  0  0  0  0
    4.0296    1.5483    1.3243 C   0  0  0  0  0  0  0  0  0  0  0  0
    5.2681    1.3843    1.3096 O   0  0  0  0  0  0  0  0  0  0  0  0
    3.1715    0.6419    0.6088 C   0  0  0  0  0  0  0  0  0  0  0  0
    1.7926    0.8219    0.6233 C   0  0  0  0  0  0  0  0  0  0  0  0
    1.0564   -0.1005   -0.0935 C   0  0  0  0  0  0  0  0  0  0  0  0
    1.5278   -1.1353   -0.7909 C   0  0  0  0  0  0  0  0  0  0  0  0
    0.7933   -2.0942   -1.5335 C   0  0  0  0  0  0  0  0  0  0  0  0
   -0.3837   -2.1801   -1.6916 C   0  0  0  0  0  0  0  0  0  0  0  0
   -1.5967   -1.7004   -1.4502 C   0  0  0  0  0  0  0  0  0  0  0  0
   -2.4837   -2.5008   -2.0926 O   0  0  0  0  0  0  0  0  0  0  0  0
   -2.2787   -0.6594   -0.7658 C   0  0  0  0  0  0  0  0  0  0  0  0
   -1.7946    0.3585   -0.0019 C   0  0  0  0  0  0  0  0  0  0  0  0
   -2.5419    1.3101    0.6136 C   0  0  0  0  0  0  0  0  0  0  0  0
   -3.8930    1.3245    0.5126 N   0  0  0  0  0  4  0  0  0  0  0  0
   -4.6380    2.2876    1.1363 O   0  0  0  0  0  1  0  0  0  0  0  0
   -4.4227    0.3450   -0.2278 C   0  0  0  0  0  0  0  0  0  0  0  0
   -3.7070   -0.6338   -0.8652 C   0  0  0  0  0  0  0  0  0  0  0  0
    2.9170   -1.3032   -0.7959 C   0  0  0  0  0  0  0  0  0  0  0  0
    3.6835   -0.4116   -0.0985 C   0  0  0  0  0  0  0  0  0  0  0  0
  1  2  1  0
  2  3  2  0
  2  4  1  0
  4  5  2  0
  5  6  1  0
  6  7  2  0
  7  8  1  0
  8  9  2  0
  9 10  1  0
 10 11  2  0
 10 12  1  0
 12 13  2  0
 13 14  1  0
 14 15  2  0
 15 16  1  0
 15 17  1  0
 17 18  2  0
  7 19  1  0
 19 20  2  0
 20  4  1  0
 18 12  1  0
M  CHG  2  15   1  16  -1
M  END
>  <zinc_id>  (1) 
ZINC000004566919

>  <smiles>  (1) 
CC(=O)c1ccc(/C=C\C(=O)c2cc[n+]([O-])cc2)cc1

$$$$
