
     RDKit          3D

 29 31  0  0  0  0  0  0  0  0999 V2000
    3.8415    0.8640    0.8314 O   0  0  0  0  0  0  0  0  0  0  0  0
    3.4206   -0.2054    0.3430 C   0  0  0  0  0  0  0  0  0  0  0  0
    2.0087   -0.4520   -0.0209 C   0  0  0  0  0  0  0  0  0  0  0  0
    1.2952    0.7908    0.3227 N   0  0  0  0  0  0  0  0  0  0  0  0
   -0.0974    0.9231    0.1037 C   0  0  0  0  0  0  0  0  0  0  0  0
   -0.6735   -0.0696   -0.3969 O   0  0  0  0  0  0  0  0  0  0  0  0
   -0.8236    2.0335    0.3975 N   0  0  0  0  0  0  0  0  0  0  0  0
   -2.3711    2.1383    0.1335 C   0  0  2  0  0  0  0  0  0  0  0  0
   -2.6522    0.5783   -0.2634 C   0  0  0  0  0  0  0  0  0  0  0  0
   -4.0793    0.4056   -0.5273 C   0  0  0  0  0  0  0  0  0  0  0  0
   -4.8129   -0.4170    0.2182 C   0  0  0  0  0  0  0  0  0  0  0  0
   -4.4837   -1.2190    1.2906 C   0  0  0  0  0  0  0  0  0  0  0  0
   -5.3981   -2.0287    1.9562 C   0  0  0  0  0  0  0  0  0  0  0  0
   -6.7033   -2.0027    1.4885 C   0  0  0  0  0  0  0  0  0  0  0  0
   -7.0922   -1.2280    0.4289 C   0  0  0  0  0  0  0  0  0  0  0  0
   -6.1277   -0.4427   -0.1904 C   0  0  0  0  0  0  0  0  0  0  0  0
   -6.2671    0.3525   -1.1917 N   0  0  0  0  0  0  0  0  0  0  0  0
   -5.0093    0.9716   -1.5149 C   0  0  0  0  0  0  0  0  0  0  0  0
   -2.2444    2.7235   -1.3515 C   0  0  0  0  0  0  0  0  0  0  0  0
   -1.1871    2.8645   -1.9107 O   0  0  0  0  0  0  0  0  0  0  0  0
   -3.4480    3.0530   -1.9276 O   0  0  0  0  0  0  0  0  0  0  0  0
    4.3538   -1.2453    0.1242 N   0  0  0  0  0  0  0  0  0  0  0  0
    5.7080   -1.0358    0.4615 C   0  0  0  0  0  0  0  0  0  0  0  0
    6.1636    0.1375    0.9849 C   0  0  0  0  0  0  0  0  0  0  0  0
    7.4848    0.3450    1.3134 C   0  0  0  0  0  0  0  0  0  0  0  0
    8.3855   -0.6681    1.1077 C   0  0  0  0  0  0  0  0  0  0  0  0
    7.9594   -1.8647    0.5811 C   0  0  0  0  0  0  0  0  0  0  0  0
    6.6095   -2.0543    0.2537 C   0  0  0  0  0  0  0  0  0  0  0  0
    6.2402   -3.2479   -0.2609 F   0  0  0  0  0  0  0  0  0  0  0  0
  1  2  2  0
  2  3  1  0
  3  4  1  0
  4  5  1  0
  5  6  2  0
  5  7  1  0
  7  8  1  0
  8  9  1  6
  9 10  1  0
 10 11  2  0
 11 12  1  0
 12 13  2  0
 13 14  1  0
 14 15  2  0
 15 16  1  0
 16 17  2  0
 17 18  1  0
  8 19  1  0
 19 20  2  0
 19 21  1  0
  2 22  1  0
 22 23  1  0
 23 24  2  0
 24 25  1  0
 25 26  2  0
 26 27  1  0
 27 28  2  0
 28 29  1  0
 18 10  1  0
 28 23  1  0
 16 11  1  0
M  END
>  <zinc_id>  (1) 
ZINC000064683508

>  <smiles>  (1) 
O=C(CNC(=O)N[C@H](CC1=c2ccccc2=NC1)C(=O)O)Nc1ccccc1F

$$$$
