
     RDKit          3D

 22 24  0  0  0  0  0  0  0  0999 V2000
   -0.7520   -0.4510    1.6672 O   0  0  0  0  0  0  0  0  0  0  0  0
   -0.2157   -0.9369    0.6273 C   0  0  0  0  0  0  0  0  0  0  0  0
   -0.9633   -1.9731   -0.1503 C   0  0  0  0  0  0  0  0  0  0  0  0
   -2.0277   -1.2362   -1.4146 S   0  0  0  0  0  0  0  0  0  0  0  0
   -3.3670   -0.2934   -0.7178 C   0  0  0  0  0  0  0  0  0  0  0  0
   -3.2586    1.0462   -0.4294 C   0  0  0  0  0  0  0  0  0  0  0  0
   -4.3373    1.7363    0.1124 C   0  0  0  0  0  0  0  0  0  0  0  0
   -5.5241    1.0472    0.3568 C   0  0  0  0  0  0  0  0  0  0  0  0
   -5.5778   -0.2808    0.0519 C   0  0  0  0  0  0  0  0  0  0  0  0
   -4.5189   -0.9250   -0.4725 N   0  0  0  0  0  4  0  0  0  0  0  0
   -4.7016   -2.2753   -0.7416 O   0  0  0  0  0  1  0  0  0  0  0  0
    1.0654   -0.4685    0.2630 N   0  0  0  0  0  0  0  0  0  0  0  0
    1.6059    0.6224    1.2872 C   0  0  2  0  0  0  0  0  0  0  0  0
    1.5177    1.9208    0.2546 C   0  0  0  0  0  0  0  0  0  0  0  0
    1.6308    1.4951   -1.1225 C   0  0  0  0  0  0  0  0  0  0  0  0
    2.7429    0.6609   -1.3833 O   0  0  0  0  0  0  0  0  0  0  0  0
    3.5794    0.3599   -0.3118 C   0  0  0  0  0  0  0  0  0  0  0  0
    4.9284    0.0809   -0.5293 C   0  0  0  0  0  0  0  0  0  0  0  0
    5.7788   -0.2221    0.5225 C   0  0  0  0  0  0  0  0  0  0  0  0
    5.2862   -0.2495    1.8075 C   0  0  0  0  0  0  0  0  0  0  0  0
    3.9449    0.0257    2.0386 C   0  0  0  0  0  0  0  0  0  0  0  0
    3.1636    0.3164    0.9561 C   0  0  0  0  0  0  0  0  0  0  0  0
  1  2  2  0
  2  3  1  0
  3  4  1  0
  4  5  1  0
  5  6  2  0
  6  7  1  0
  7  8  2  0
  8  9  1  0
  9 10  2  0
 10 11  1  0
  2 12  1  0
 13 12  1  6
 13 14  1  0
 14 15  1  0
 15 16  1  0
 16 17  1  0
 17 18  2  0
 18 19  1  0
 19 20  2  0
 20 21  1  0
 21 22  2  0
 10  5  1  0
 22 13  1  0
 22 17  1  0
M  CHG  2  10   1  11  -1
M  END
>  <zinc_id>  (1) 
ZINC000019352272

>  <smiles>  (1) 
O=C(CSc1cccc[n+]1[O-])N[C@@H]1CCOc2ccccc21

$$$$
