
     RDKit          3D

 23 24  0  0  0  0  0  0  0  0999 V2000
   -4.6826    1.0398    2.9953 C   0  0  0  0  0  0  0  0  0  0  0  0
   -4.2014    1.6228    1.8024 O   0  0  0  0  0  0  0  0  0  0  0  0
   -3.5994    0.8688    0.8050 C   0  0  0  0  0  0  0  0  0  0  0  0
   -2.3710    0.3724    1.0127 C   0  0  0  0  0  0  0  0  0  0  0  0
   -1.6956   -0.4257   -0.0035 C   0  0  0  0  0  0  0  0  0  0  0  0
   -0.4830   -0.9022    0.2306 C   0  0  0  0  0  0  0  0  0  0  0  0
    0.1799   -1.6812   -0.7575 N   0  0  0  0  0  0  0  0  0  0  0  0
    1.2862   -1.1121   -1.3931 N   0  0  0  0  0  0  0  0  0  0  0  0
    2.4131   -0.7054   -0.6306 C   0  0  0  0  0  0  0  0  0  0  0  0
    2.5128   -0.8291    0.7369 C   0  0  0  0  0  0  0  0  0  0  0  0
    3.6558   -0.4059    1.4228 C   0  0  0  0  0  0  0  0  0  0  0  0
    4.6962    0.1431    0.7133 C   0  0  0  0  0  0  0  0  0  0  0  0
    5.8932    0.6002    1.3182 N   0  0  0  0  0  4  0  0  0  0  0  0
    6.8158    1.0918    0.6501 O   0  0  0  0  0  0  0  0  0  0  0  0
    6.0335    0.4961    2.6740 O   0  0  0  0  0  1  0  0  0  0  0  0
    4.5709    0.2552   -0.6527 C   0  0  0  0  0  0  0  0  0  0  0  0
    3.4503   -0.1640   -1.2898 N   0  0  0  0  0  0  0  0  0  0  0  0
   -2.3729   -0.6857   -1.2669 C   0  0  0  0  0  0  0  0  0  0  0  0
   -3.5928   -0.2143   -1.5194 C   0  0  0  0  0  0  0  0  0  0  0  0
   -4.2128   -0.4800   -2.7353 O   0  0  0  0  0  0  0  0  0  0  0  0
   -4.6927   -1.8004   -2.9256 C   0  0  0  0  0  0  0  0  0  0  0  0
   -4.2228    0.5754   -0.4741 C   0  0  0  0  0  0  0  0  0  0  0  0
   -5.3806    1.0233   -0.7128 O   0  0  0  0  0  0  0  0  0  0  0  0
  1  2  1  0
  2  3  1  0
  3  4  2  0
  4  5  1  0
  5  6  2  3
  6  7  1  0
  7  8  1  0
  8  9  1  0
  9 10  2  0
 10 11  1  0
 11 12  2  0
 12 13  1  0
 13 14  2  0
 13 15  1  0
 12 16  1  0
 16 17  2  0
  5 18  1  0
 18 19  2  0
 19 20  1  0
 20 21  1  0
 19 22  1  0
 22 23  2  0
 22  3  1  0
 17  9  1  0
M  CHG  2  13   1  15  -1
M  END
>  <zinc_id>  (1) 
ZINC000015685828

>  <smiles>  (1) 
COC1=CC(=CNNc2ccc([N+](=O)[O-])cn2)C=C(OC)C1=O

$$$$
