
     RDKit          3D

 28 30  0  0  0  0  0  0  0  0999 V2000
    4.0226   -1.9624    1.2208 O   0  0  0  0  0  0  0  0  0  0  0  0
    3.5551   -0.8995    0.7042 C   0  0  0  0  0  0  0  0  0  0  0  0
    2.0915   -0.8325    0.5993 C   0  0  0  0  0  0  0  0  0  0  0  0
    1.6122    0.3989    0.0053 N   0  0  0  0  0  0  0  0  0  0  0  0
    0.2083    0.5413   -0.1346 C   0  0  0  0  0  0  0  0  0  0  0  0
   -0.5362   -0.3821    0.2519 O   0  0  0  0  0  0  0  0  0  0  0  0
   -0.3563    1.6754   -0.6879 N   0  0  0  0  0  0  0  0  0  0  0  0
   -1.8956    1.8208   -0.8456 C   0  0  2  0  0  0  0  0  0  0  0  0
   -2.2937    0.9950    0.5250 C   0  0  0  0  0  0  0  0  0  0  0  0
   -3.7865    1.0378    0.5261 C   0  0  0  0  0  0  0  0  0  0  0  0
   -4.5461   -0.0353    0.4908 C   0  0  0  0  0  0  0  0  0  0  0  0
   -4.2122   -1.3747    0.4472 C   0  0  0  0  0  0  0  0  0  0  0  0
   -5.1913   -2.3325    0.4143 C   0  0  0  0  0  0  0  0  0  0  0  0
   -6.5302   -2.0045    0.4230 C   0  0  0  0  0  0  0  0  0  0  0  0
   -6.8571   -0.6692    0.4664 C   0  0  0  0  0  0  0  0  0  0  0  0
   -5.8991    0.3249    0.5007 C   0  0  0  0  0  0  0  0  0  0  0  0
   -6.0195    1.5958    0.5409 N   0  0  0  0  0  0  0  0  0  0  0  0
   -4.6994    2.1999    0.5616 C   0  0  0  0  0  0  0  0  0  0  0  0
   -2.1632    0.6699   -1.8811 C   0  0  0  0  0  0  0  0  0  0  0  0
   -1.1754    0.0506   -2.2538 O   0  0  0  0  0  0  0  0  0  0  0  0
   -3.3887    0.3639   -2.3442 O   0  0  0  0  0  0  0  0  0  0  0  0
    4.4734    0.0738    0.2990 N   0  0  0  0  0  0  0  0  0  0  0  0
    5.8798   -0.0810    0.4414 C   0  0  0  0  0  0  0  0  0  0  0  0
    6.4447   -1.2020    1.0005 C   0  0  0  0  0  0  0  0  0  0  0  0
    7.7980   -1.3355    1.1290 C   0  0  0  0  0  0  0  0  0  0  0  0
    8.6270   -0.3443    0.6985 C   0  0  0  0  0  0  0  0  0  0  0  0
    8.1120    0.7891    0.1358 C   0  0  0  0  0  0  0  0  0  0  0  0
    6.7258    0.9185    0.0077 C   0  0  0  0  0  0  0  0  0  0  0  0
  1  2  2  0
  2  3  1  0
  3  4  1  0
  4  5  1  0
  5  6  2  0
  5  7  1  0
  7  8  1  0
  8  9  1  1
  9 10  1  0
 10 11  2  0
 11 12  1  0
 12 13  2  0
 13 14  1  0
 14 15  2  0
 15 16  1  0
 16 17  2  0
 17 18  1  0
  8 19  1  0
 19 20  2  0
 19 21  1  0
  2 22  1  0
 22 23  1  0
 23 24  2  0
 24 25  1  0
 25 26  2  0
 26 27  1  0
 27 28  2  0
 18 10  1  0
 28 23  1  0
 16 11  1  0
M  END
>  <zinc_id>  (1) 
ZINC000064683482

>  <smiles>  (1) 
O=C(CNC(=O)N[C@H](CC1=c2ccccc2=NC1)C(=O)O)Nc1ccccc1

$$$$
