
     RDKit          3D

 30 32  0  0  0  0  0  0  0  0999 V2000
    4.6125    1.2268    2.5122 C   0  0  0  0  0  0  0  0  0  0  0  0
    4.3318    0.2631    1.4833 N   0  0  0  0  0  0  0  0  0  0  0  0
    5.2081   -0.8707    1.2724 C   0  0  0  0  0  0  0  0  0  0  0  0
    6.2330   -0.4336    0.2832 C   0  0  0  0  0  0  0  0  0  0  0  0
    7.1771   -1.3592   -0.1474 C   0  0  0  0  0  0  0  0  0  0  0  0
    8.1478   -0.9931   -1.0664 C   0  0  0  0  0  0  0  0  0  0  0  0
    8.1699    0.2985   -1.5508 C   0  0  0  0  0  0  0  0  0  0  0  0
    7.2410    1.2446   -1.1396 C   0  0  0  0  0  0  0  0  0  0  0  0
    6.2883    0.8487   -0.2248 C   0  0  0  0  0  0  0  0  0  0  0  0
    3.1803    0.4431    0.6770 C   0  0  0  0  0  0  0  0  0  0  0  0
    2.4102    1.4357    0.8555 O   0  0  0  0  0  0  0  0  0  0  0  0
    2.8943   -0.5682   -0.3921 C   0  0  0  0  0  0  0  0  0  0  0  0
    1.6763   -0.1997   -1.0977 N   0  0  0  0  0  0  0  0  0  0  0  0
    0.4173   -0.0757   -0.4398 C   0  0  0  0  0  0  0  0  0  0  0  0
    0.4292   -0.3053    0.7901 O   0  0  0  0  0  0  0  0  0  0  0  0
   -0.7900    0.2784   -1.0804 N   0  0  0  0  0  0  0  0  0  0  0  0
   -1.9986    0.3296   -0.0653 C   0  0  2  0  0  0  0  0  0  0  0  0
   -2.8605   -0.8675   -0.8560 C   0  0  0  0  0  0  0  0  0  0  0  0
   -4.0761   -0.9193    0.0364 C   0  0  0  0  0  0  0  0  0  0  0  0
   -5.3171   -0.6865   -0.3504 C   0  0  0  0  0  0  0  0  0  0  0  0
   -5.7697   -0.3513   -1.6285 C   0  0  0  0  0  0  0  0  0  0  0  0
   -7.1239   -0.1544   -1.7904 C   0  0  0  0  0  0  0  0  0  0  0  0
   -7.9888   -0.2862   -0.7239 C   0  0  0  0  0  0  0  0  0  0  0  0
   -7.5496   -0.6124    0.5201 C   0  0  0  0  0  0  0  0  0  0  0  0
   -6.1783   -0.8186    0.7150 C   0  0  0  0  0  0  0  0  0  0  0  0
   -5.5383   -1.1303    1.7822 N   0  0  0  0  0  0  0  0  0  0  0  0
   -4.1402   -1.2297    1.4766 C   0  0  0  0  0  0  0  0  0  0  0  0
   -2.7923    1.5325   -0.7796 C   0  0  0  0  0  0  0  0  0  0  0  0
   -2.3273    2.0304   -1.7973 O   0  0  0  0  0  0  0  0  0  0  0  0
   -3.9665    1.9304   -0.1859 O   0  0  0  0  0  0  0  0  0  0  0  0
  1  2  1  0
  2  3  1  0
  3  4  1  0
  4  5  2  0
  5  6  1  0
  6  7  2  0
  7  8  1  0
  8  9  2  0
  2 10  1  0
 10 11  2  0
 10 12  1  0
 12 13  1  0
 13 14  1  0
 14 15  2  0
 14 16  1  0
 16 17  1  0
 17 18  1  6
 18 19  1  0
 19 20  2  0
 20 21  1  0
 21 22  2  0
 22 23  1  0
 23 24  2  0
 24 25  1  0
 25 26  2  0
 26 27  1  0
 17 28  1  0
 28 29  2  0
 28 30  1  0
  9  4  1  0
 27 19  1  0
 25 20  1  0
M  END
>  <zinc_id>  (1) 
ZINC000064683689

>  <smiles>  (1) 
CN(Cc1ccccc1)C(=O)CNC(=O)N[C@H](CC1=c2ccccc2=NC1)C(=O)O

$$$$
