
     RDKit          3D

 36 40  0  0  0  0  0  0  0  0999 V2000
   10.9049    2.9316    2.2021 C   0  0  0  0  0  0  0  0  0  0  0  0
   10.1962    1.7669    1.5616 C   0  0  0  0  0  0  0  0  0  0  0  0
   10.9594    0.8082    0.9290 C   0  0  0  0  0  0  0  0  0  0  0  0
   10.3525   -0.2629    0.3368 C   0  0  0  0  0  0  0  0  0  0  0  0
    8.9438   -0.3858    0.3741 C   0  0  0  0  0  0  0  0  0  0  0  0
    8.1968    0.5513    0.9924 C   0  0  0  0  0  0  0  0  0  0  0  0
    8.8245    1.6449    1.5963 C   0  0  0  0  0  0  0  0  0  0  0  0
    6.9938    0.2621    0.9145 N   0  0  0  0  0  0  0  0  0  0  0  0
    6.7797   -1.0255    0.1623 C   0  0  1  0  0  0  0  0  0  0  0  0
    6.4054   -0.2732   -1.5629 S   0  0  0  0  0  0  0  0  0  0  0  0
    4.8560    0.6352   -1.5036 C   0  0  0  0  0  0  0  0  0  0  0  0
    3.7677   -0.3629   -1.2718 C   0  0  0  0  0  0  0  0  0  0  0  0
    3.9900   -1.5962   -1.1600 O   0  0  0  0  0  0  0  0  0  0  0  0
    2.3951    0.0104   -1.1604 N   0  0  0  0  0  0  0  0  0  0  0  0
    1.3751   -0.9609   -0.9408 C   0  0  0  0  0  0  0  0  0  0  0  0
    1.6205   -2.3113   -0.8235 C   0  0  0  0  0  0  0  0  0  0  0  0
    0.6083   -3.2283   -0.6093 C   0  0  0  0  0  0  0  0  0  0  0  0
   -0.6680   -2.7087   -0.5193 C   0  0  0  0  0  0  0  0  0  0  0  0
   -0.9415   -1.3640   -0.6326 C   0  0  0  0  0  0  0  0  0  0  0  0
   -2.2912   -0.8479   -0.5325 N   0  0  0  0  0  0  0  0  0  0  0  0
   -3.3935   -1.6990   -0.3124 C   0  0  0  0  0  0  0  0  0  0  0  0
   -3.1244   -2.9216   -0.2110 O   0  0  0  0  0  0  0  0  0  0  0  0
   -4.8129   -1.3166   -0.1892 C   0  0  0  0  0  0  0  0  0  0  0  0
   -5.1458    0.4333   -0.3406 S   0  0  0  0  0  0  0  0  0  0  0  0
   -6.8969    0.6639   -0.1638 C   0  0  0  0  0  0  0  0  0  0  0  0
   -7.8279    0.6522   -1.1189 N   0  0  0  0  0  0  0  0  0  0  0  0
   -9.0575    0.8651   -0.5578 C   0  0  0  0  0  0  0  0  0  0  0  0
  -10.3255    0.9474   -1.0639 C   0  0  0  0  0  0  0  0  0  0  0  0
  -11.3636    1.1761   -0.1881 C   0  0  0  0  0  0  0  0  0  0  0  0
  -11.1482    1.3177    1.1449 C   0  0  0  0  0  0  0  0  0  0  0  0
  -12.2686    1.5681    2.1215 C   0  0  0  0  0  0  0  0  0  0  0  0
   -9.8806    1.2399    1.6868 C   0  0  0  0  0  0  0  0  0  0  0  0
   -8.8531    1.0111    0.7978 C   0  0  0  0  0  0  0  0  0  0  0  0
   -7.5183    0.8813    0.9965 N   0  0  0  0  0  0  0  0  0  0  0  0
    0.1025   -0.5519   -0.8394 N   0  0  0  0  0  0  0  0  0  0  0  0
    8.2451   -1.2959   -0.1145 N   0  0  0  0  0  0  0  0  0  0  0  0
  1  2  1  0
  2  3  1  0
  3  4  2  0
  4  5  1  0
  5  6  1  0
  6  7  1  0
  6  8  2  0
  8  9  1  0
  9 10  1  6
 10 11  1  0
 11 12  1  0
 12 13  2  0
 12 14  1  0
 14 15  1  0
 15 16  2  0
 16 17  1  0
 17 18  2  0
 18 19  1  0
 19 20  1  0
 20 21  1  0
 21 22  2  0
 21 23  1  0
 23 24  1  0
 24 25  1  0
 25 26  2  0
 26 27  1  0
 27 28  2  0
 28 29  1  0
 29 30  2  0
 30 31  1  0
 30 32  1  0
 32 33  2  0
 33 34  1  0
 19 35  2  0
  9 36  1  0
  7  2  2  0
 35 15  1  0
 36  5  2  0
 34 25  1  0
 33 27  1  0
M  END
>  <zinc_id>  (1) 
ZINC000039253070

>  <smiles>  (1) 
Cc1ccc2c(c1)=N[C@@H](SCC(=O)Nc1cccc(NC(=O)CSc3nc4ccc(C)cc4[nH]3)n1)N=2

$$$$
