
     RDKit          2D

 22 23  0  0  0  0  0  0  0  0999 V2000
   -5.5647   -1.4462    0.0000 N   0  0  0  0  0  0  0  0  0  0  0  0
   -4.2912   -0.6536    0.0000 C   0  0  0  0  0  0  0  0  0  0  0  0
   -4.3408    0.8455    0.0000 C   0  0  0  0  0  0  0  0  0  0  0  0
   -3.0673    1.6381    0.0000 C   0  0  0  0  0  0  0  0  0  0  0  0
   -3.1169    3.1373    0.0000 N   0  0  0  0  0  0  0  0  0  0  0  0
   -1.7441    0.9315    0.0000 C   0  0  0  0  0  0  0  0  0  0  0  0
   -0.4706    1.7240    0.0000 O   0  0  0  0  0  0  0  0  0  0  0  0
    0.8525    1.0174    0.0000 C   0  0  0  0  0  0  0  0  0  0  0  0
    0.9021   -0.4818    0.0000 O   0  0  0  0  0  0  0  0  0  0  0  0
    2.2253   -1.1884    0.0000 C   0  0  0  0  0  0  0  0  0  0  0  0
    2.2749   -2.6876    0.0000 C   0  0  0  0  0  0  0  0  0  0  0  0
    3.5980   -3.3942    0.0000 O   0  0  0  0  0  0  0  0  0  0  0  0
    3.4988   -0.3959    0.0000 C   0  0  0  0  0  0  0  0  0  0  0  0
    4.8219   -1.1025    0.0000 O   0  0  0  0  0  0  0  0  0  0  0  0
    3.4492    1.1033    0.0000 C   0  0  0  0  0  0  0  0  0  0  0  0
    4.7227    1.8959    0.0000 N   0  0  0  0  0  0  0  0  0  0  0  0
    2.1261    1.8099    0.0000 C   0  0  0  0  0  0  0  0  0  0  0  0
    2.0764    3.3091    0.0000 O   0  0  0  0  0  0  0  0  0  0  0  0
   -1.6945   -0.5677    0.0000 C   0  0  0  0  0  0  0  0  0  0  0  0
   -0.3714   -1.2743    0.0000 O   0  0  0  0  0  0  0  0  0  0  0  0
   -2.9680   -1.3603    0.0000 C   0  0  0  0  0  0  0  0  0  0  0  0
   -2.9184   -2.8594    0.0000 O   0  0  0  0  0  0  0  0  0  0  0  0
  2  1  1  1
  2  3  1  0
  3  4  1  0
  4  5  1  1
  4  6  1  0
  6  7  1  6
  8  7  1  6
  8  9  1  0
  9 10  1  0
 10 11  1  6
 11 12  1  0
 10 13  1  0
 13 14  1  6
 13 15  1  0
 15 16  1  1
 15 17  1  0
 17 18  1  6
  6 19  1  0
 19 20  1  6
 19 21  1  0
 21 22  1  1
 21  2  1  0
 17  8  1  0
M  END
>  <zinc_id>  (1) 
ZINC000077286907

>  <smiles>  (1) 
N[C@H]1C[C@@H](N)[C@H](O[C@H]2O[C@@H](CO)[C@@H](O)[C@H](N)[C@H]2O)[C@H](O)[C@H]1O

$$$$
